1

   Abaqus 3DEXPERIENCE R2018x                                  Date 19-Mar-2022   Time 23:04:31
   For use by INDIAN INSTITUTE OF TECHNOLOGY BOMBAY under license from Dassault Systemes or its subsidiary.

                                                                                 
                                                                                 
 STEP    1     INCREMENT     1     STEP TIME    0.00    


                        S T E P       1     S T A T I C   A N A L Y S I S


                                                                                          

          FIXED TIME INCREMENTS
          TIME INCREMENT IS                                    0.100    
          TIME PERIOD IS                                        3.00    

     LINEAR EQUATION SOLVER TYPE         DIRECT SPARSE

 CONVERGENCE TOLERANCE PARAMETERS FOR FORCE    
     CRITERION FOR RESIDUAL FORCE     FOR A NONLINEAR PROBLEM          5.000E-03
     CRITERION FOR DISP.    CORRECTION IN A NONLINEAR PROBLEM          1.000E-02
     INITIAL VALUE OF TIME AVERAGE FORCE                               1.000E-02
     AVERAGE FORCE     IS TIME AVERAGE FORCE    
     ALTERNATE CRIT. FOR RESIDUAL FORCE     FOR A NONLINEAR PROBLEM    2.000E-02
     CRITERION FOR ZERO FORCE     RELATIVE TO TIME AVRG. FORCE         1.000E-05
     CRITERION FOR RESIDUAL FORCE     WHEN THERE IS ZERO FLUX          1.000E-05
     CRITERION FOR DISP.    CORRECTION WHEN THERE IS ZERO FLUX         1.000E-03
     CRITERION FOR RESIDUAL FORCE     FOR A LINEAR INCREMENT           1.000E-08
     FIELD CONVERSION RATIO                                             1.00    
     CRITERION FOR ZERO FORCE     REL. TO TIME AVRG. MAX. FORCE        1.000E-05
     CRITERION FOR ZERO DISP.    RELATIVE TO CHARACTERISTIC LENGTH     1.000E-08

     VOLUMETRIC STRAIN COMPATIBILITY TOLERANCE FOR HYBRID SOLIDS       1.000E-05
     AXIAL STRAIN COMPATIBILITY TOLERANCE FOR HYBRID BEAMS             1.000E-05
     TRANS. SHEAR STRAIN COMPATIBILITY TOLERANCE FOR HYBRID BEAMS      1.000E-05
     SOFT CONTACT CONSTRAINT COMPATIBILITY TOLERANCE FOR P>P0          5.000E-03
     SOFT CONTACT CONSTRAINT COMPATIBILITY TOLERANCE FOR P=0.0         0.100    
     CONTACT FORCE ERROR TOLERANCE FOR CONVERT SDI=YES                 1.00    
     DISPLACEMENT COMPATIBILITY TOLERANCE FOR DCOUP ELEMENTS           1.000E-05
     ROTATION COMPATIBILITY TOLERANCE FOR DCOUP ELEMENTS               1.000E-05

 EQUILIBRIUM WILL BE CHECKED FOR SEVERE DISCONTINUITY ITERATIONS

 ITERATION CONTROL PARAMETERS:
     FIRST EQUILIBRIUM ITERATION FOR CONSECUTIVE DIVERGENCE CHECK              4
     EQUILIBRIUM ITERATION AFTER WHICH ALTERNATE RESIDUAL IS USED              9
     MAXIMUM EQUILIBRIUM ITERATIONS ALLOWED                                   16
     MAXIMUM ITERATIONS FOR SEVERE DISCONTINUITIES                            12
     GLOBAL STABILIZATION CONTROL IS NOT USED

          PRINT OF INCREMENT NUMBER, TIME, ETC., EVERY    1  INCREMENTS

     THE MAXIMUM NUMBER OF INCREMENTS IN THIS STEP IS                     110

          LARGE DISPLACEMENT THEORY WILL BE USED

     EXTRAPOLATION WILL NOT BE USED

     CHARACTERISTIC ELEMENT LENGTH      7.50    

     DETAILS REGARDING ACTUAL SOLUTION WAVEFRONT REQUESTED

     DETAILED OUTPUT OF DIAGNOSTICS TO DATABASE REQUESTED

     PRINT OF INCREMENT NUMBER, TIME, ETC., TO THE MESSAGE FILE EVERY     1  INCREMENTS

     THE STATUS FILE WILL MONITOR NODE           3 DOF  1
     THE MESSAGE FILE WILL MONITOR NODE          3 DOF  1 EVERY     1 INCREMENTS

     COLLECTING MODEL CONSTRAINT INFORMATION FOR OVERCONSTRAINT CHECKS

     COLLECTING STEP CONSTRAINT INFORMATION FOR OVERCONSTRAINT CHECKS


  INCREMENT     1 STARTS. ATTEMPT NUMBER  1, TIME INCREMENT  0.100    

  NUMBER OF EQUATIONS =         7     NUMBER OF RHS =    1
  NUMBER OF FLOATING PT. OPERATIONS =  5.90E+01

     CHECK POINT   START OF SOLVER    

     CHECK POINT  END OF SOLVER       

       ELAPSED USER TIME (SEC)      =   0.0000    
       ELAPSED SYSTEM TIME (SEC)    =   0.0000    
       ELAPSED TOTAL CPU TIME (SEC) =   0.0000    
       ELAPSED WALLCLOCK TIME (SEC) =          0

               CONVERGENCE CHECKS FOR EQUILIBRIUM ITERATION     1


 AVERAGE FORCE                       462.       TIME AVG. FORCE        462.    
 LARGEST RESIDUAL FORCE            -0.200       AT NODE          3   DOF  1
 LARGEST INCREMENT OF DISP.         6.667E-04   AT NODE          3   DOF  1
 LARGEST CORRECTION TO DISP.        6.667E-04   AT NODE          3   DOF  1
 ESTIMATE OF DISP.    CORRECTION   -6.668E-08
 FORCE     EQUILIB. ACCEPTED BASED ON SMALL RESIDUAL AND ESTIMATED CORRECTION

 ITERATION SUMMARY FOR THE INCREMENT:   1 TOTAL ITERATIONS, OF WHICH
   0 ARE SEVERE DISCONTINUITY ITERATIONS AND  1 ARE EQUILIBRIUM ITERATIONS.

 CURRENT VALUE OF MONITOR NODE          3 D.O.F.  1 IS   6.667E-04

 TIME INCREMENT COMPLETED  0.100    ,  FRACTION OF STEP COMPLETED  3.333E-02
 STEP TIME COMPLETED       0.100    ,  TOTAL TIME COMPLETED        0.100    


  INCREMENT     2 STARTS. ATTEMPT NUMBER  1, TIME INCREMENT  0.100    

  NUMBER OF EQUATIONS =        10     NUMBER OF RHS =    1
  NUMBER OF FLOATING PT. OPERATIONS =  1.77E+02

     CHECK POINT   START OF SOLVER    

     CHECK POINT  END OF SOLVER       

       ELAPSED USER TIME (SEC)      =   0.0000    
       ELAPSED SYSTEM TIME (SEC)    =   0.0000    
       ELAPSED TOTAL CPU TIME (SEC) =   0.0000    
       ELAPSED WALLCLOCK TIME (SEC) =          0
 

 ***WARNING: THE SYSTEM MATRIX HAS 2 NEGATIVE EIGENVALUES.

     NEGATIVE EIGENVALUES MEAN THAT THE SYSTEM MATRIX IS NOT 
     POSITIVE DEFINITE:
     FOR EXAMPLE, A BIFURCATION (BUCKLING) LOAD MAY HAVE BEEN EXCEEDED.

               CONVERGENCE CHECKS FOR EQUILIBRIUM ITERATION     1


 AVERAGE FORCE                      2.400E+03   TIME AVG. FORCE       1.431E+03
 LARGEST RESIDUAL FORCE            -0.200       AT NODE          3   DOF  1
 LARGEST INCREMENT OF DISP.         6.665E-04   AT NODE          3   DOF  1
 LARGEST CORRECTION TO DISP.        6.665E-04   AT NODE          3   DOF  1
 ESTIMATE OF DISP.    CORRECTION   -6.668E-08
 FORCE     EQUILIB. ACCEPTED BASED ON SMALL RESIDUAL AND ESTIMATED CORRECTION

 ITERATION SUMMARY FOR THE INCREMENT:   1 TOTAL ITERATIONS, OF WHICH
   0 ARE SEVERE DISCONTINUITY ITERATIONS AND  1 ARE EQUILIBRIUM ITERATIONS.

 CURRENT VALUE OF MONITOR NODE          3 D.O.F.  1 IS   1.333E-03

 TIME INCREMENT COMPLETED  0.100    ,  FRACTION OF STEP COMPLETED  6.667E-02
 STEP TIME COMPLETED       0.200    ,  TOTAL TIME COMPLETED        0.200    


  INCREMENT     3 STARTS. ATTEMPT NUMBER  1, TIME INCREMENT  0.100    

  NUMBER OF EQUATIONS =        10     NUMBER OF RHS =    1
  NUMBER OF FLOATING PT. OPERATIONS =  1.77E+02

     CHECK POINT   START OF SOLVER    

     CHECK POINT  END OF SOLVER       

       ELAPSED USER TIME (SEC)      =   0.0000    
       ELAPSED SYSTEM TIME (SEC)    =   0.0000    
       ELAPSED TOTAL CPU TIME (SEC) =   0.0000    
       ELAPSED WALLCLOCK TIME (SEC) =          0
 

 ***WARNING: THE SYSTEM MATRIX HAS 2 NEGATIVE EIGENVALUES.
             EXPLANATIONS ARE SUGGESTED AFTER THE FIRST OCCURRENCE OF THIS MESSAGE.

               CONVERGENCE CHECKS FOR EQUILIBRIUM ITERATION     1


 AVERAGE FORCE                      3.600E+03   TIME AVG. FORCE       2.154E+03
 LARGEST RESIDUAL FORCE            -0.200       AT NODE          3   DOF  1
 LARGEST INCREMENT OF DISP.         6.663E-04   AT NODE          3   DOF  1
 LARGEST CORRECTION TO DISP.        6.663E-04   AT NODE          3   DOF  1
 ESTIMATE OF DISP.    CORRECTION   -6.669E-08
 FORCE     EQUILIB. ACCEPTED BASED ON SMALL RESIDUAL AND ESTIMATED CORRECTION

 ITERATION SUMMARY FOR THE INCREMENT:   1 TOTAL ITERATIONS, OF WHICH
   0 ARE SEVERE DISCONTINUITY ITERATIONS AND  1 ARE EQUILIBRIUM ITERATIONS.

 CURRENT VALUE OF MONITOR NODE          3 D.O.F.  1 IS   1.999E-03

 TIME INCREMENT COMPLETED  0.100    ,  FRACTION OF STEP COMPLETED  0.100    
 STEP TIME COMPLETED       0.300    ,  TOTAL TIME COMPLETED        0.300    


  INCREMENT     4 STARTS. ATTEMPT NUMBER  1, TIME INCREMENT  0.100    

  NUMBER OF EQUATIONS =        10     NUMBER OF RHS =    1
  NUMBER OF FLOATING PT. OPERATIONS =  1.77E+02

     CHECK POINT   START OF SOLVER    

     CHECK POINT  END OF SOLVER       

       ELAPSED USER TIME (SEC)      =  0.10000    
       ELAPSED SYSTEM TIME (SEC)    =   0.0000    
       ELAPSED TOTAL CPU TIME (SEC) =  0.10000    
       ELAPSED WALLCLOCK TIME (SEC) =          0
 

 ***WARNING: THE SYSTEM MATRIX HAS 2 NEGATIVE EIGENVALUES.
             EXPLANATIONS ARE SUGGESTED AFTER THE FIRST OCCURRENCE OF THIS MESSAGE.

               CONVERGENCE CHECKS FOR EQUILIBRIUM ITERATION     1


 AVERAGE FORCE                      4.800E+03   TIME AVG. FORCE       2.815E+03
 LARGEST RESIDUAL FORCE            -0.200       AT NODE          3   DOF  1
 LARGEST INCREMENT OF DISP.         6.662E-04   AT NODE          3   DOF  1
 LARGEST CORRECTION TO DISP.        6.662E-04   AT NODE          3   DOF  1
 ESTIMATE OF DISP.    CORRECTION   -6.670E-08
 FORCE     EQUILIB. ACCEPTED BASED ON SMALL RESIDUAL AND ESTIMATED CORRECTION

 ITERATION SUMMARY FOR THE INCREMENT:   1 TOTAL ITERATIONS, OF WHICH
   0 ARE SEVERE DISCONTINUITY ITERATIONS AND  1 ARE EQUILIBRIUM ITERATIONS.

 CURRENT VALUE OF MONITOR NODE          3 D.O.F.  1 IS   2.666E-03

 TIME INCREMENT COMPLETED  0.100    ,  FRACTION OF STEP COMPLETED  0.133    
 STEP TIME COMPLETED       0.400    ,  TOTAL TIME COMPLETED        0.400    


  INCREMENT     5 STARTS. ATTEMPT NUMBER  1, TIME INCREMENT  0.100    

  NUMBER OF EQUATIONS =        10     NUMBER OF RHS =    1
  NUMBER OF FLOATING PT. OPERATIONS =  1.77E+02

     CHECK POINT   START OF SOLVER    

     CHECK POINT  END OF SOLVER       

       ELAPSED USER TIME (SEC)      =   0.0000    
       ELAPSED SYSTEM TIME (SEC)    =   0.0000    
       ELAPSED TOTAL CPU TIME (SEC) =   0.0000    
       ELAPSED WALLCLOCK TIME (SEC) =          0
 

 ***WARNING: THE SYSTEM MATRIX HAS 2 NEGATIVE EIGENVALUES.
             EXPLANATIONS ARE SUGGESTED AFTER THE FIRST OCCURRENCE OF THIS MESSAGE.

               CONVERGENCE CHECKS FOR EQUILIBRIUM ITERATION     1


 AVERAGE FORCE                      6.000E+03   TIME AVG. FORCE       3.452E+03
 LARGEST RESIDUAL FORCE            -0.200       AT NODE          3   DOF  1
 LARGEST INCREMENT OF DISP.         6.661E-04   AT NODE          3   DOF  1
 LARGEST CORRECTION TO DISP.        6.661E-04   AT NODE          3   DOF  1
 ESTIMATE OF DISP.    CORRECTION   -6.670E-08
 FORCE     EQUILIB. ACCEPTED BASED ON SMALL RESIDUAL AND ESTIMATED CORRECTION

 ITERATION SUMMARY FOR THE INCREMENT:   1 TOTAL ITERATIONS, OF WHICH
   0 ARE SEVERE DISCONTINUITY ITERATIONS AND  1 ARE EQUILIBRIUM ITERATIONS.

 CURRENT VALUE OF MONITOR NODE          3 D.O.F.  1 IS   3.332E-03

 TIME INCREMENT COMPLETED  0.100    ,  FRACTION OF STEP COMPLETED  0.167    
 STEP TIME COMPLETED       0.500    ,  TOTAL TIME COMPLETED        0.500    


  INCREMENT     6 STARTS. ATTEMPT NUMBER  1, TIME INCREMENT  0.100    

  NUMBER OF EQUATIONS =        10     NUMBER OF RHS =    1
  NUMBER OF FLOATING PT. OPERATIONS =  1.77E+02

     CHECK POINT   START OF SOLVER    

     CHECK POINT  END OF SOLVER       

       ELAPSED USER TIME (SEC)      =   0.0000    
       ELAPSED SYSTEM TIME (SEC)    =   0.0000    
       ELAPSED TOTAL CPU TIME (SEC) =   0.0000    
       ELAPSED WALLCLOCK TIME (SEC) =          0
 

 ***WARNING: THE SYSTEM MATRIX HAS 2 NEGATIVE EIGENVALUES.
             EXPLANATIONS ARE SUGGESTED AFTER THE FIRST OCCURRENCE OF THIS MESSAGE.

               CONVERGENCE CHECKS FOR EQUILIBRIUM ITERATION     1


 AVERAGE FORCE                      7.200E+03   TIME AVG. FORCE       4.077E+03
 LARGEST RESIDUAL FORCE            -0.200       AT NODE          3   DOF  1
 LARGEST INCREMENT OF DISP.         6.659E-04   AT NODE          3   DOF  1
 LARGEST CORRECTION TO DISP.        6.659E-04   AT NODE          3   DOF  1
 ESTIMATE OF DISP.    CORRECTION   -6.671E-08
 FORCE     EQUILIB. ACCEPTED BASED ON SMALL RESIDUAL AND ESTIMATED CORRECTION

 ITERATION SUMMARY FOR THE INCREMENT:   1 TOTAL ITERATIONS, OF WHICH
   0 ARE SEVERE DISCONTINUITY ITERATIONS AND  1 ARE EQUILIBRIUM ITERATIONS.

 CURRENT VALUE OF MONITOR NODE          3 D.O.F.  1 IS   3.998E-03

 TIME INCREMENT COMPLETED  0.100    ,  FRACTION OF STEP COMPLETED  0.200    
 STEP TIME COMPLETED       0.600    ,  TOTAL TIME COMPLETED        0.600    


  INCREMENT     7 STARTS. ATTEMPT NUMBER  1, TIME INCREMENT  0.100    

  NUMBER OF EQUATIONS =        10     NUMBER OF RHS =    1
  NUMBER OF FLOATING PT. OPERATIONS =  1.77E+02

     CHECK POINT   START OF SOLVER    

     CHECK POINT  END OF SOLVER       

       ELAPSED USER TIME (SEC)      =   0.0000    
       ELAPSED SYSTEM TIME (SEC)    =   0.0000    
       ELAPSED TOTAL CPU TIME (SEC) =   0.0000    
       ELAPSED WALLCLOCK TIME (SEC) =          0
 

 ***WARNING: THE SYSTEM MATRIX HAS 2 NEGATIVE EIGENVALUES.
             EXPLANATIONS ARE SUGGESTED AFTER THE FIRST OCCURRENCE OF THIS MESSAGE.

               CONVERGENCE CHECKS FOR EQUILIBRIUM ITERATION     1


 AVERAGE FORCE                      8.400E+03   TIME AVG. FORCE       4.695E+03
 LARGEST RESIDUAL FORCE            -0.200       AT NODE          3   DOF  1
 LARGEST INCREMENT OF DISP.         6.658E-04   AT NODE          3   DOF  1
 LARGEST CORRECTION TO DISP.        6.658E-04   AT NODE          3   DOF  1
 ESTIMATE OF DISP.    CORRECTION   -6.672E-08
 FORCE     EQUILIB. ACCEPTED BASED ON SMALL RESIDUAL AND ESTIMATED CORRECTION

 ITERATION SUMMARY FOR THE INCREMENT:   1 TOTAL ITERATIONS, OF WHICH
   0 ARE SEVERE DISCONTINUITY ITERATIONS AND  1 ARE EQUILIBRIUM ITERATIONS.

 CURRENT VALUE OF MONITOR NODE          3 D.O.F.  1 IS   4.663E-03

 TIME INCREMENT COMPLETED  0.100    ,  FRACTION OF STEP COMPLETED  0.233    
 STEP TIME COMPLETED       0.700    ,  TOTAL TIME COMPLETED        0.700    


  INCREMENT     8 STARTS. ATTEMPT NUMBER  1, TIME INCREMENT  0.100    

  NUMBER OF EQUATIONS =        10     NUMBER OF RHS =    1
  NUMBER OF FLOATING PT. OPERATIONS =  1.77E+02

     CHECK POINT   START OF SOLVER    

     CHECK POINT  END OF SOLVER       

       ELAPSED USER TIME (SEC)      =   0.0000    
       ELAPSED SYSTEM TIME (SEC)    =   0.0000    
       ELAPSED TOTAL CPU TIME (SEC) =   0.0000    
       ELAPSED WALLCLOCK TIME (SEC) =          0
 

 ***WARNING: THE SYSTEM MATRIX HAS 2 NEGATIVE EIGENVALUES.
             EXPLANATIONS ARE SUGGESTED AFTER THE FIRST OCCURRENCE OF THIS MESSAGE.

               CONVERGENCE CHECKS FOR EQUILIBRIUM ITERATION     1


 AVERAGE FORCE                      9.600E+03   TIME AVG. FORCE       5.308E+03
 LARGEST RESIDUAL FORCE            -0.200       AT NODE          3   DOF  1
 LARGEST INCREMENT OF DISP.         6.657E-04   AT NODE          3   DOF  1
 LARGEST CORRECTION TO DISP.        6.657E-04   AT NODE          3   DOF  1
 ESTIMATE OF DISP.    CORRECTION   -6.673E-08
 FORCE     EQUILIB. ACCEPTED BASED ON SMALL RESIDUAL AND ESTIMATED CORRECTION

 ITERATION SUMMARY FOR THE INCREMENT:   1 TOTAL ITERATIONS, OF WHICH
   0 ARE SEVERE DISCONTINUITY ITERATIONS AND  1 ARE EQUILIBRIUM ITERATIONS.

 CURRENT VALUE OF MONITOR NODE          3 D.O.F.  1 IS   5.329E-03

 TIME INCREMENT COMPLETED  0.100    ,  FRACTION OF STEP COMPLETED  0.267    
 STEP TIME COMPLETED       0.800    ,  TOTAL TIME COMPLETED        0.800    


  INCREMENT     9 STARTS. ATTEMPT NUMBER  1, TIME INCREMENT  0.100    

  NUMBER OF EQUATIONS =        10     NUMBER OF RHS =    1
  NUMBER OF FLOATING PT. OPERATIONS =  1.77E+02

     CHECK POINT   START OF SOLVER    

     CHECK POINT  END OF SOLVER       

       ELAPSED USER TIME (SEC)      =   0.0000    
       ELAPSED SYSTEM TIME (SEC)    =   0.0000    
       ELAPSED TOTAL CPU TIME (SEC) =   0.0000    
       ELAPSED WALLCLOCK TIME (SEC) =          0
 

 ***WARNING: THE SYSTEM MATRIX HAS 2 NEGATIVE EIGENVALUES.
             EXPLANATIONS ARE SUGGESTED AFTER THE FIRST OCCURRENCE OF THIS MESSAGE.

               CONVERGENCE CHECKS FOR EQUILIBRIUM ITERATION     1


 AVERAGE FORCE                      1.080E+04   TIME AVG. FORCE       5.918E+03
 LARGEST RESIDUAL FORCE            -0.201       AT NODE          3   DOF  1
 LARGEST INCREMENT OF DISP.         6.655E-04   AT NODE          3   DOF  1
 LARGEST CORRECTION TO DISP.        6.655E-04   AT NODE          3   DOF  1
 ESTIMATE OF DISP.    CORRECTION   -6.674E-08
 FORCE     EQUILIB. ACCEPTED BASED ON SMALL RESIDUAL AND ESTIMATED CORRECTION

 ITERATION SUMMARY FOR THE INCREMENT:   1 TOTAL ITERATIONS, OF WHICH
   0 ARE SEVERE DISCONTINUITY ITERATIONS AND  1 ARE EQUILIBRIUM ITERATIONS.

 CURRENT VALUE OF MONITOR NODE          3 D.O.F.  1 IS   5.995E-03

 TIME INCREMENT COMPLETED  0.100    ,  FRACTION OF STEP COMPLETED  0.300    
 STEP TIME COMPLETED       0.900    ,  TOTAL TIME COMPLETED        0.900    


  INCREMENT    10 STARTS. ATTEMPT NUMBER  1, TIME INCREMENT  0.100    

  NUMBER OF EQUATIONS =        10     NUMBER OF RHS =    1
  NUMBER OF FLOATING PT. OPERATIONS =  1.77E+02

     CHECK POINT   START OF SOLVER    

     CHECK POINT  END OF SOLVER       

       ELAPSED USER TIME (SEC)      =   0.0000    
       ELAPSED SYSTEM TIME (SEC)    =   0.0000    
       ELAPSED TOTAL CPU TIME (SEC) =   0.0000    
       ELAPSED WALLCLOCK TIME (SEC) =          0
 

 ***WARNING: THE SYSTEM MATRIX HAS 2 NEGATIVE EIGENVALUES.
             EXPLANATIONS ARE SUGGESTED AFTER THE FIRST OCCURRENCE OF THIS MESSAGE.

               CONVERGENCE CHECKS FOR EQUILIBRIUM ITERATION     1


 AVERAGE FORCE                      1.200E+04   TIME AVG. FORCE       6.526E+03
 LARGEST RESIDUAL FORCE            -0.201       AT NODE          3   DOF  1
 LARGEST INCREMENT OF DISP.         6.654E-04   AT NODE          3   DOF  1
 LARGEST CORRECTION TO DISP.        6.654E-04   AT NODE          3   DOF  1
 ESTIMATE OF DISP.    CORRECTION   -6.675E-08
 FORCE     EQUILIB. ACCEPTED BASED ON SMALL RESIDUAL AND ESTIMATED CORRECTION

 ITERATION SUMMARY FOR THE INCREMENT:   1 TOTAL ITERATIONS, OF WHICH
   0 ARE SEVERE DISCONTINUITY ITERATIONS AND  1 ARE EQUILIBRIUM ITERATIONS.

 CURRENT VALUE OF MONITOR NODE          3 D.O.F.  1 IS   6.660E-03

 TIME INCREMENT COMPLETED  0.100    ,  FRACTION OF STEP COMPLETED  0.333    
 STEP TIME COMPLETED        1.00    ,  TOTAL TIME COMPLETED         1.00    


  INCREMENT    11 STARTS. ATTEMPT NUMBER  1, TIME INCREMENT  0.100    

  NUMBER OF EQUATIONS =        10     NUMBER OF RHS =    1
  NUMBER OF FLOATING PT. OPERATIONS =  1.77E+02

     CHECK POINT   START OF SOLVER    

     CHECK POINT  END OF SOLVER       

       ELAPSED USER TIME (SEC)      =   0.0000    
       ELAPSED SYSTEM TIME (SEC)    =   0.0000    
       ELAPSED TOTAL CPU TIME (SEC) =   0.0000    
       ELAPSED WALLCLOCK TIME (SEC) =          0
 

 ***WARNING: THE SYSTEM MATRIX HAS 2 NEGATIVE EIGENVALUES.
             EXPLANATIONS ARE SUGGESTED AFTER THE FIRST OCCURRENCE OF THIS MESSAGE.

               CONVERGENCE CHECKS FOR EQUILIBRIUM ITERATION     1


 AVERAGE FORCE                      1.321E+04   TIME AVG. FORCE       7.134E+03
 LARGEST RESIDUAL FORCE            -0.205       AT NODE          3   DOF  1
 LARGEST INCREMENT OF DISP.         6.719E-04   AT NODE          3   DOF  1
 LARGEST CORRECTION TO DISP.        6.719E-04   AT NODE          3   DOF  1
 ESTIMATE OF DISP.    CORRECTION   -6.810E-08
 FORCE     EQUILIB. ACCEPTED BASED ON SMALL RESIDUAL AND ESTIMATED CORRECTION

 ITERATION SUMMARY FOR THE INCREMENT:   1 TOTAL ITERATIONS, OF WHICH
   0 ARE SEVERE DISCONTINUITY ITERATIONS AND  1 ARE EQUILIBRIUM ITERATIONS.

 CURRENT VALUE OF MONITOR NODE          3 D.O.F.  1 IS   7.332E-03

 TIME INCREMENT COMPLETED  0.100    ,  FRACTION OF STEP COMPLETED  0.367    
 STEP TIME COMPLETED        1.10    ,  TOTAL TIME COMPLETED         1.10    


  INCREMENT    12 STARTS. ATTEMPT NUMBER  1, TIME INCREMENT  0.100    

  NUMBER OF EQUATIONS =        10     NUMBER OF RHS =    1
  NUMBER OF FLOATING PT. OPERATIONS =  1.77E+02

     CHECK POINT   START OF SOLVER    

     CHECK POINT  END OF SOLVER       

       ELAPSED USER TIME (SEC)      =   0.0000    
       ELAPSED SYSTEM TIME (SEC)    =   0.0000    
       ELAPSED TOTAL CPU TIME (SEC) =   0.0000    
       ELAPSED WALLCLOCK TIME (SEC) =          0
 

 ***WARNING: THE SYSTEM MATRIX HAS 2 NEGATIVE EIGENVALUES.
             EXPLANATIONS ARE SUGGESTED AFTER THE FIRST OCCURRENCE OF THIS MESSAGE.

               CONVERGENCE CHECKS FOR EQUILIBRIUM ITERATION     1


 AVERAGE FORCE                      1.442E+04   TIME AVG. FORCE       7.742E+03
 LARGEST RESIDUAL FORCE            -0.205       AT NODE          3   DOF  1
 LARGEST INCREMENT OF DISP.         6.718E-04   AT NODE          3   DOF  1
 LARGEST CORRECTION TO DISP.        6.718E-04   AT NODE          3   DOF  1
 ESTIMATE OF DISP.    CORRECTION   -6.811E-08
 FORCE     EQUILIB. ACCEPTED BASED ON SMALL RESIDUAL AND ESTIMATED CORRECTION

 ITERATION SUMMARY FOR THE INCREMENT:   1 TOTAL ITERATIONS, OF WHICH
   0 ARE SEVERE DISCONTINUITY ITERATIONS AND  1 ARE EQUILIBRIUM ITERATIONS.

 CURRENT VALUE OF MONITOR NODE          3 D.O.F.  1 IS   8.004E-03

 TIME INCREMENT COMPLETED  0.100    ,  FRACTION OF STEP COMPLETED  0.400    
 STEP TIME COMPLETED        1.20    ,  TOTAL TIME COMPLETED         1.20    


  INCREMENT    13 STARTS. ATTEMPT NUMBER  1, TIME INCREMENT  0.100    

  NUMBER OF EQUATIONS =        10     NUMBER OF RHS =    1
  NUMBER OF FLOATING PT. OPERATIONS =  1.77E+02

     CHECK POINT   START OF SOLVER    

     CHECK POINT  END OF SOLVER       

       ELAPSED USER TIME (SEC)      =   0.0000    
       ELAPSED SYSTEM TIME (SEC)    =   0.0000    
       ELAPSED TOTAL CPU TIME (SEC) =   0.0000    
       ELAPSED WALLCLOCK TIME (SEC) =          0
 

 ***WARNING: THE SYSTEM MATRIX HAS 2 NEGATIVE EIGENVALUES.
             EXPLANATIONS ARE SUGGESTED AFTER THE FIRST OCCURRENCE OF THIS MESSAGE.

               CONVERGENCE CHECKS FOR EQUILIBRIUM ITERATION     1


 AVERAGE FORCE                      1.564E+04   TIME AVG. FORCE       8.349E+03
 LARGEST RESIDUAL FORCE            -0.205       AT NODE          3   DOF  1
 LARGEST INCREMENT OF DISP.         6.716E-04   AT NODE          3   DOF  1
 LARGEST CORRECTION TO DISP.        6.716E-04   AT NODE          3   DOF  1
 ESTIMATE OF DISP.    CORRECTION   -6.812E-08
 FORCE     EQUILIB. ACCEPTED BASED ON SMALL RESIDUAL AND ESTIMATED CORRECTION

 ITERATION SUMMARY FOR THE INCREMENT:   1 TOTAL ITERATIONS, OF WHICH
   0 ARE SEVERE DISCONTINUITY ITERATIONS AND  1 ARE EQUILIBRIUM ITERATIONS.

 CURRENT VALUE OF MONITOR NODE          3 D.O.F.  1 IS   8.675E-03

 TIME INCREMENT COMPLETED  0.100    ,  FRACTION OF STEP COMPLETED  0.433    
 STEP TIME COMPLETED        1.30    ,  TOTAL TIME COMPLETED         1.30    


  INCREMENT    14 STARTS. ATTEMPT NUMBER  1, TIME INCREMENT  0.100    

  NUMBER OF EQUATIONS =        10     NUMBER OF RHS =    1
  NUMBER OF FLOATING PT. OPERATIONS =  1.77E+02

     CHECK POINT   START OF SOLVER    

     CHECK POINT  END OF SOLVER       

       ELAPSED USER TIME (SEC)      =   0.0000    
       ELAPSED SYSTEM TIME (SEC)    =   0.0000    
       ELAPSED TOTAL CPU TIME (SEC) =   0.0000    
       ELAPSED WALLCLOCK TIME (SEC) =          0
 

 ***WARNING: THE SYSTEM MATRIX HAS 2 NEGATIVE EIGENVALUES.
             EXPLANATIONS ARE SUGGESTED AFTER THE FIRST OCCURRENCE OF THIS MESSAGE.

               CONVERGENCE CHECKS FOR EQUILIBRIUM ITERATION     1


 AVERAGE FORCE                      1.685E+04   TIME AVG. FORCE       8.956E+03
 LARGEST RESIDUAL FORCE            -0.205       AT NODE          3   DOF  1
 LARGEST INCREMENT OF DISP.         6.715E-04   AT NODE          3   DOF  1
 LARGEST CORRECTION TO DISP.        6.715E-04   AT NODE          3   DOF  1
 ESTIMATE OF DISP.    CORRECTION   -6.812E-08
 FORCE     EQUILIB. ACCEPTED BASED ON SMALL RESIDUAL AND ESTIMATED CORRECTION

 ITERATION SUMMARY FOR THE INCREMENT:   1 TOTAL ITERATIONS, OF WHICH
   0 ARE SEVERE DISCONTINUITY ITERATIONS AND  1 ARE EQUILIBRIUM ITERATIONS.

 CURRENT VALUE OF MONITOR NODE          3 D.O.F.  1 IS   9.347E-03

 TIME INCREMENT COMPLETED  0.100    ,  FRACTION OF STEP COMPLETED  0.467    
 STEP TIME COMPLETED        1.40    ,  TOTAL TIME COMPLETED         1.40    


  INCREMENT    15 STARTS. ATTEMPT NUMBER  1, TIME INCREMENT  0.100    

  NUMBER OF EQUATIONS =        10     NUMBER OF RHS =    1
  NUMBER OF FLOATING PT. OPERATIONS =  1.77E+02

     CHECK POINT   START OF SOLVER    

     CHECK POINT  END OF SOLVER       

       ELAPSED USER TIME (SEC)      =   0.0000    
       ELAPSED SYSTEM TIME (SEC)    =   0.0000    
       ELAPSED TOTAL CPU TIME (SEC) =   0.0000    
       ELAPSED WALLCLOCK TIME (SEC) =          0
 

 ***WARNING: THE SYSTEM MATRIX HAS 2 NEGATIVE EIGENVALUES.
             EXPLANATIONS ARE SUGGESTED AFTER THE FIRST OCCURRENCE OF THIS MESSAGE.

               CONVERGENCE CHECKS FOR EQUILIBRIUM ITERATION     1


 AVERAGE FORCE                      1.804E+04   TIME AVG. FORCE       9.561E+03
 LARGEST RESIDUAL FORCE              56.0       AT NODE          3   DOF  1
 LARGEST INCREMENT OF DISP.         6.714E-04   AT NODE          3   DOF  1
 LARGEST CORRECTION TO DISP.        6.714E-04   AT NODE          3   DOF  1
          FORCE     EQUILIBRIUM NOT ACHIEVED WITHIN TOLERANCE.

  NUMBER OF EQUATIONS =        10     NUMBER OF RHS =    1
  NUMBER OF FLOATING PT. OPERATIONS =  1.77E+02

     CHECK POINT   START OF SOLVER    

     CHECK POINT  END OF SOLVER       

       ELAPSED USER TIME (SEC)      =   0.0000    
       ELAPSED SYSTEM TIME (SEC)    =   0.0000    
       ELAPSED TOTAL CPU TIME (SEC) =   0.0000    
       ELAPSED WALLCLOCK TIME (SEC) =          0
 

 ***WARNING: THE SYSTEM MATRIX HAS 2 NEGATIVE EIGENVALUES.
             EXPLANATIONS ARE SUGGESTED AFTER THE FIRST OCCURRENCE OF THIS MESSAGE.

               CONVERGENCE CHECKS FOR EQUILIBRIUM ITERATION     2


 AVERAGE FORCE                      1.806E+04   TIME AVG. FORCE       9.563E+03
 LARGEST RESIDUAL FORCE             4.293E-04   AT NODE          3   DOF  1
 LARGEST INCREMENT OF DISP.         7.262E-04   AT NODE          3   DOF  1
 LARGEST CORRECTION TO DISP.        5.487E-05   AT NODE          3   DOF  1
 ESTIMATE OF DISP.    CORRECTION    4.204E-10
 FORCE     EQUILIB. ACCEPTED BASED ON SMALL RESIDUAL AND ESTIMATED CORRECTION

 ITERATION SUMMARY FOR THE INCREMENT:   2 TOTAL ITERATIONS, OF WHICH
   0 ARE SEVERE DISCONTINUITY ITERATIONS AND  2 ARE EQUILIBRIUM ITERATIONS.

 CURRENT VALUE OF MONITOR NODE          3 D.O.F.  1 IS   1.007E-02

 TIME INCREMENT COMPLETED  0.100    ,  FRACTION OF STEP COMPLETED  0.500    
 STEP TIME COMPLETED        1.50    ,  TOTAL TIME COMPLETED         1.50    


  INCREMENT    16 STARTS. ATTEMPT NUMBER  1, TIME INCREMENT  0.100    

  NUMBER OF EQUATIONS =        10     NUMBER OF RHS =    1
  NUMBER OF FLOATING PT. OPERATIONS =  1.77E+02

     CHECK POINT   START OF SOLVER    

     CHECK POINT  END OF SOLVER       

       ELAPSED USER TIME (SEC)      =   0.0000    
       ELAPSED SYSTEM TIME (SEC)    =   0.0000    
       ELAPSED TOTAL CPU TIME (SEC) =   0.0000    
       ELAPSED WALLCLOCK TIME (SEC) =          0
 

 ***WARNING: THE SYSTEM MATRIX HAS 2 NEGATIVE EIGENVALUES.
             EXPLANATIONS ARE SUGGESTED AFTER THE FIRST OCCURRENCE OF THIS MESSAGE.

               CONVERGENCE CHECKS FOR EQUILIBRIUM ITERATION     1


 AVERAGE FORCE                      1.872E+04   TIME AVG. FORCE       1.014E+04
 LARGEST RESIDUAL FORCE             1.308E+03   AT NODE          3   DOF  1
 LARGEST INCREMENT OF DISP.         6.580E-04   AT NODE          3   DOF  1
 LARGEST CORRECTION TO DISP.        6.580E-04   AT NODE          3   DOF  1
          FORCE     EQUILIBRIUM NOT ACHIEVED WITHIN TOLERANCE.

  NUMBER OF EQUATIONS =        10     NUMBER OF RHS =    1
  NUMBER OF FLOATING PT. OPERATIONS =  1.77E+02

     CHECK POINT   START OF SOLVER    

     CHECK POINT  END OF SOLVER       

       ELAPSED USER TIME (SEC)      =   0.0000    
       ELAPSED SYSTEM TIME (SEC)    =   0.0000    
       ELAPSED TOTAL CPU TIME (SEC) =   0.0000    
       ELAPSED WALLCLOCK TIME (SEC) =          0
 

 ***WARNING: THE SYSTEM MATRIX HAS 2 NEGATIVE EIGENVALUES.
             EXPLANATIONS ARE SUGGESTED AFTER THE FIRST OCCURRENCE OF THIS MESSAGE.

               CONVERGENCE CHECKS FOR EQUILIBRIUM ITERATION     2


 AVERAGE FORCE                      1.925E+04   TIME AVG. FORCE       1.017E+04
 LARGEST RESIDUAL FORCE             0.234       AT NODE          3   DOF  1
 LARGEST INCREMENT OF DISP.         1.939E-03   AT NODE          3   DOF  1
 LARGEST CORRECTION TO DISP.        1.281E-03   AT NODE          3   DOF  1
 ESTIMATE OF DISP.    CORRECTION    2.293E-07
 FORCE     EQUILIB. ACCEPTED BASED ON SMALL RESIDUAL AND ESTIMATED CORRECTION

 ITERATION SUMMARY FOR THE INCREMENT:   2 TOTAL ITERATIONS, OF WHICH
   0 ARE SEVERE DISCONTINUITY ITERATIONS AND  2 ARE EQUILIBRIUM ITERATIONS.

 CURRENT VALUE OF MONITOR NODE          3 D.O.F.  1 IS   1.201E-02

 TIME INCREMENT COMPLETED  0.100    ,  FRACTION OF STEP COMPLETED  0.533    
 STEP TIME COMPLETED        1.60    ,  TOTAL TIME COMPLETED         1.60    


  INCREMENT    17 STARTS. ATTEMPT NUMBER  1, TIME INCREMENT  0.100    

  NUMBER OF EQUATIONS =        10     NUMBER OF RHS =    1
  NUMBER OF FLOATING PT. OPERATIONS =  1.77E+02

     CHECK POINT   START OF SOLVER    

     CHECK POINT  END OF SOLVER       

       ELAPSED USER TIME (SEC)      =   0.0000    
       ELAPSED SYSTEM TIME (SEC)    =  0.10000    
       ELAPSED TOTAL CPU TIME (SEC) =  0.10000    
       ELAPSED WALLCLOCK TIME (SEC) =          0
 

 ***WARNING: THE SYSTEM MATRIX HAS 2 NEGATIVE EIGENVALUES.
             EXPLANATIONS ARE SUGGESTED AFTER THE FIRST OCCURRENCE OF THIS MESSAGE.

               CONVERGENCE CHECKS FOR EQUILIBRIUM ITERATION     1


 AVERAGE FORCE                      1.703E+04   TIME AVG. FORCE       1.057E+04
 LARGEST RESIDUAL FORCE             -181.       AT NODE          4   DOF  1
 LARGEST INCREMENT OF DISP.         1.828E-03   AT NODE          3   DOF  1
 LARGEST CORRECTION TO DISP.        1.828E-03   AT NODE          3   DOF  1
          FORCE     EQUILIBRIUM NOT ACHIEVED WITHIN TOLERANCE.

  NUMBER OF EQUATIONS =        10     NUMBER OF RHS =    1
  NUMBER OF FLOATING PT. OPERATIONS =  1.77E+02

     CHECK POINT   START OF SOLVER    

     CHECK POINT  END OF SOLVER       

       ELAPSED USER TIME (SEC)      =   0.0000    
       ELAPSED SYSTEM TIME (SEC)    =   0.0000    
       ELAPSED TOTAL CPU TIME (SEC) =   0.0000    
       ELAPSED WALLCLOCK TIME (SEC) =          0
 

 ***WARNING: THE SYSTEM MATRIX HAS 2 NEGATIVE EIGENVALUES.
             EXPLANATIONS ARE SUGGESTED AFTER THE FIRST OCCURRENCE OF THIS MESSAGE.

               CONVERGENCE CHECKS FOR EQUILIBRIUM ITERATION     2


 AVERAGE FORCE                      2.044E+04   TIME AVG. FORCE       1.077E+04
 LARGEST RESIDUAL FORCE            -0.143       AT NODE          4   DOF  1
 LARGEST INCREMENT OF DISP.         1.941E-03   AT NODE          3   DOF  1
 LARGEST CORRECTION TO DISP.       -1.073E-03   AT NODE          4   DOF  1
 ESTIMATE OF DISP.    CORRECTION   -8.464E-07
 FORCE     EQUILIB. ACCEPTED BASED ON SMALL RESIDUAL AND ESTIMATED CORRECTION

 ITERATION SUMMARY FOR THE INCREMENT:   2 TOTAL ITERATIONS, OF WHICH
   0 ARE SEVERE DISCONTINUITY ITERATIONS AND  2 ARE EQUILIBRIUM ITERATIONS.

 CURRENT VALUE OF MONITOR NODE          3 D.O.F.  1 IS   1.395E-02

 TIME INCREMENT COMPLETED  0.100    ,  FRACTION OF STEP COMPLETED  0.567    
 STEP TIME COMPLETED        1.70    ,  TOTAL TIME COMPLETED         1.70    


  INCREMENT    18 STARTS. ATTEMPT NUMBER  1, TIME INCREMENT  0.100    

  NUMBER OF EQUATIONS =        10     NUMBER OF RHS =    1
  NUMBER OF FLOATING PT. OPERATIONS =  1.77E+02

     CHECK POINT   START OF SOLVER    

     CHECK POINT  END OF SOLVER       

       ELAPSED USER TIME (SEC)      =   0.0000    
       ELAPSED SYSTEM TIME (SEC)    =   0.0000    
       ELAPSED TOTAL CPU TIME (SEC) =   0.0000    
       ELAPSED WALLCLOCK TIME (SEC) =          0
 

 ***WARNING: THE SYSTEM MATRIX HAS 2 NEGATIVE EIGENVALUES.
             EXPLANATIONS ARE SUGGESTED AFTER THE FIRST OCCURRENCE OF THIS MESSAGE.

               CONVERGENCE CHECKS FOR EQUILIBRIUM ITERATION     1


 AVERAGE FORCE                      2.110E+04   TIME AVG. FORCE       1.135E+04
 LARGEST RESIDUAL FORCE             1.309E+03   AT NODE          3   DOF  1
 LARGEST INCREMENT OF DISP.         6.576E-04   AT NODE          3   DOF  1
 LARGEST CORRECTION TO DISP.        6.576E-04   AT NODE          3   DOF  1
          FORCE     EQUILIBRIUM NOT ACHIEVED WITHIN TOLERANCE.

  NUMBER OF EQUATIONS =        10     NUMBER OF RHS =    1
  NUMBER OF FLOATING PT. OPERATIONS =  1.77E+02

     CHECK POINT   START OF SOLVER    

     CHECK POINT  END OF SOLVER       

       ELAPSED USER TIME (SEC)      =   0.0000    
       ELAPSED SYSTEM TIME (SEC)    =   0.0000    
       ELAPSED TOTAL CPU TIME (SEC) =   0.0000    
       ELAPSED WALLCLOCK TIME (SEC) =          0
 

 ***WARNING: THE SYSTEM MATRIX HAS 2 NEGATIVE EIGENVALUES.
             EXPLANATIONS ARE SUGGESTED AFTER THE FIRST OCCURRENCE OF THIS MESSAGE.

               CONVERGENCE CHECKS FOR EQUILIBRIUM ITERATION     2


 AVERAGE FORCE                      2.162E+04   TIME AVG. FORCE       1.138E+04
 LARGEST RESIDUAL FORCE             0.235       AT NODE          3   DOF  1
 LARGEST INCREMENT OF DISP.         1.941E-03   AT NODE          3   DOF  1
 LARGEST CORRECTION TO DISP.        1.284E-03   AT NODE          3   DOF  1
 ESTIMATE OF DISP.    CORRECTION    2.300E-07
 FORCE     EQUILIB. ACCEPTED BASED ON SMALL RESIDUAL AND ESTIMATED CORRECTION

 ITERATION SUMMARY FOR THE INCREMENT:   2 TOTAL ITERATIONS, OF WHICH
   0 ARE SEVERE DISCONTINUITY ITERATIONS AND  2 ARE EQUILIBRIUM ITERATIONS.

 CURRENT VALUE OF MONITOR NODE          3 D.O.F.  1 IS   1.590E-02

 TIME INCREMENT COMPLETED  0.100    ,  FRACTION OF STEP COMPLETED  0.600    
 STEP TIME COMPLETED        1.80    ,  TOTAL TIME COMPLETED         1.80    


  INCREMENT    19 STARTS. ATTEMPT NUMBER  1, TIME INCREMENT  0.100    

  NUMBER OF EQUATIONS =        10     NUMBER OF RHS =    1
  NUMBER OF FLOATING PT. OPERATIONS =  1.77E+02

     CHECK POINT   START OF SOLVER    

     CHECK POINT  END OF SOLVER       

       ELAPSED USER TIME (SEC)      =   0.0000    
       ELAPSED SYSTEM TIME (SEC)    =   0.0000    
       ELAPSED TOTAL CPU TIME (SEC) =   0.0000    
       ELAPSED WALLCLOCK TIME (SEC) =          0
 

 ***WARNING: THE SYSTEM MATRIX HAS 2 NEGATIVE EIGENVALUES.
             EXPLANATIONS ARE SUGGESTED AFTER THE FIRST OCCURRENCE OF THIS MESSAGE.

               CONVERGENCE CHECKS FOR EQUILIBRIUM ITERATION     1


 AVERAGE FORCE                      2.229E+04   TIME AVG. FORCE       1.195E+04
 LARGEST RESIDUAL FORCE             1.310E+03   AT NODE          3   DOF  1
 LARGEST INCREMENT OF DISP.         6.574E-04   AT NODE          3   DOF  1
 LARGEST CORRECTION TO DISP.        6.574E-04   AT NODE          3   DOF  1
          FORCE     EQUILIBRIUM NOT ACHIEVED WITHIN TOLERANCE.

  NUMBER OF EQUATIONS =        10     NUMBER OF RHS =    1
  NUMBER OF FLOATING PT. OPERATIONS =  1.77E+02

     CHECK POINT   START OF SOLVER    

     CHECK POINT  END OF SOLVER       

       ELAPSED USER TIME (SEC)      =   0.0000    
       ELAPSED SYSTEM TIME (SEC)    =   0.0000    
       ELAPSED TOTAL CPU TIME (SEC) =   0.0000    
       ELAPSED WALLCLOCK TIME (SEC) =          0
 

 ***WARNING: THE SYSTEM MATRIX HAS 2 NEGATIVE EIGENVALUES.
             EXPLANATIONS ARE SUGGESTED AFTER THE FIRST OCCURRENCE OF THIS MESSAGE.

               CONVERGENCE CHECKS FOR EQUILIBRIUM ITERATION     2


 AVERAGE FORCE                      2.281E+04   TIME AVG. FORCE       1.198E+04
 LARGEST RESIDUAL FORCE             0.235       AT NODE          3   DOF  1
 LARGEST INCREMENT OF DISP.         1.943E-03   AT NODE          3   DOF  1
 LARGEST CORRECTION TO DISP.        1.285E-03   AT NODE          3   DOF  1
 ESTIMATE OF DISP.    CORRECTION    2.305E-07
 FORCE     EQUILIB. ACCEPTED BASED ON SMALL RESIDUAL AND ESTIMATED CORRECTION

 ITERATION SUMMARY FOR THE INCREMENT:   2 TOTAL ITERATIONS, OF WHICH
   0 ARE SEVERE DISCONTINUITY ITERATIONS AND  2 ARE EQUILIBRIUM ITERATIONS.

 CURRENT VALUE OF MONITOR NODE          3 D.O.F.  1 IS   1.784E-02

 TIME INCREMENT COMPLETED  0.100    ,  FRACTION OF STEP COMPLETED  0.633    
 STEP TIME COMPLETED        1.90    ,  TOTAL TIME COMPLETED         1.90    


  INCREMENT    20 STARTS. ATTEMPT NUMBER  1, TIME INCREMENT  0.100    

  NUMBER OF EQUATIONS =        10     NUMBER OF RHS =    1
  NUMBER OF FLOATING PT. OPERATIONS =  1.77E+02

     CHECK POINT   START OF SOLVER    

     CHECK POINT  END OF SOLVER       

       ELAPSED USER TIME (SEC)      =   0.0000    
       ELAPSED SYSTEM TIME (SEC)    =   0.0000    
       ELAPSED TOTAL CPU TIME (SEC) =   0.0000    
       ELAPSED WALLCLOCK TIME (SEC) =          0
 

 ***WARNING: THE SYSTEM MATRIX HAS 2 NEGATIVE EIGENVALUES.
             EXPLANATIONS ARE SUGGESTED AFTER THE FIRST OCCURRENCE OF THIS MESSAGE.

               CONVERGENCE CHECKS FOR EQUILIBRIUM ITERATION     1


 AVERAGE FORCE                      2.348E+04   TIME AVG. FORCE       1.255E+04
 LARGEST RESIDUAL FORCE             1.311E+03   AT NODE          3   DOF  1
 LARGEST INCREMENT OF DISP.         6.572E-04   AT NODE          3   DOF  1
 LARGEST CORRECTION TO DISP.        6.572E-04   AT NODE          3   DOF  1
          FORCE     EQUILIBRIUM NOT ACHIEVED WITHIN TOLERANCE.

  NUMBER OF EQUATIONS =        10     NUMBER OF RHS =    1
  NUMBER OF FLOATING PT. OPERATIONS =  1.77E+02

     CHECK POINT   START OF SOLVER    

     CHECK POINT  END OF SOLVER       

       ELAPSED USER TIME (SEC)      =   0.0000    
       ELAPSED SYSTEM TIME (SEC)    =   0.0000    
       ELAPSED TOTAL CPU TIME (SEC) =   0.0000    
       ELAPSED WALLCLOCK TIME (SEC) =          0
 

 ***WARNING: THE SYSTEM MATRIX HAS 2 NEGATIVE EIGENVALUES.
             EXPLANATIONS ARE SUGGESTED AFTER THE FIRST OCCURRENCE OF THIS MESSAGE.

               CONVERGENCE CHECKS FOR EQUILIBRIUM ITERATION     2


 AVERAGE FORCE                      2.400E+04   TIME AVG. FORCE       1.258E+04
 LARGEST RESIDUAL FORCE             0.235       AT NODE          3   DOF  1
 LARGEST INCREMENT OF DISP.         1.944E-03   AT NODE          3   DOF  1
 LARGEST CORRECTION TO DISP.        1.287E-03   AT NODE          3   DOF  1
 ESTIMATE OF DISP.    CORRECTION    2.309E-07
 FORCE     EQUILIB. ACCEPTED BASED ON SMALL RESIDUAL AND ESTIMATED CORRECTION

 ITERATION SUMMARY FOR THE INCREMENT:   2 TOTAL ITERATIONS, OF WHICH
   0 ARE SEVERE DISCONTINUITY ITERATIONS AND  2 ARE EQUILIBRIUM ITERATIONS.

 CURRENT VALUE OF MONITOR NODE          3 D.O.F.  1 IS   1.978E-02

 TIME INCREMENT COMPLETED  0.100    ,  FRACTION OF STEP COMPLETED  0.667    
 STEP TIME COMPLETED        2.00    ,  TOTAL TIME COMPLETED         2.00    


  INCREMENT    21 STARTS. ATTEMPT NUMBER  1, TIME INCREMENT  0.100    

  NUMBER OF EQUATIONS =        10     NUMBER OF RHS =    1
  NUMBER OF FLOATING PT. OPERATIONS =  1.77E+02

     CHECK POINT   START OF SOLVER    

     CHECK POINT  END OF SOLVER       

       ELAPSED USER TIME (SEC)      =   0.0000    
       ELAPSED SYSTEM TIME (SEC)    =   0.0000    
       ELAPSED TOTAL CPU TIME (SEC) =   0.0000    
       ELAPSED WALLCLOCK TIME (SEC) =          0
 

 ***WARNING: THE SYSTEM MATRIX HAS 2 NEGATIVE EIGENVALUES.
             EXPLANATIONS ARE SUGGESTED AFTER THE FIRST OCCURRENCE OF THIS MESSAGE.

               CONVERGENCE CHECKS FOR EQUILIBRIUM ITERATION     1


 AVERAGE FORCE                      2.250E+04   TIME AVG. FORCE       1.305E+04
 LARGEST RESIDUAL FORCE            -0.316       AT NODE          3   DOF  1
 LARGEST INCREMENT OF DISP.        -8.294E-04   AT NODE          3   DOF  1
 LARGEST CORRECTION TO DISP.       -8.294E-04   AT NODE          3   DOF  1
 ESTIMATE OF DISP.    CORRECTION   -1.047E-07
 FORCE     EQUILIB. ACCEPTED BASED ON SMALL RESIDUAL AND ESTIMATED CORRECTION

 ITERATION SUMMARY FOR THE INCREMENT:   1 TOTAL ITERATIONS, OF WHICH
   0 ARE SEVERE DISCONTINUITY ITERATIONS AND  1 ARE EQUILIBRIUM ITERATIONS.

 CURRENT VALUE OF MONITOR NODE          3 D.O.F.  1 IS   1.895E-02

 TIME INCREMENT COMPLETED  0.100    ,  FRACTION OF STEP COMPLETED  0.700    
 STEP TIME COMPLETED        2.10    ,  TOTAL TIME COMPLETED         2.10    


  INCREMENT    22 STARTS. ATTEMPT NUMBER  1, TIME INCREMENT  0.100    

  NUMBER OF EQUATIONS =        10     NUMBER OF RHS =    1
  NUMBER OF FLOATING PT. OPERATIONS =  1.77E+02

     CHECK POINT   START OF SOLVER    

     CHECK POINT  END OF SOLVER       

       ELAPSED USER TIME (SEC)      =   0.0000    
       ELAPSED SYSTEM TIME (SEC)    =   0.0000    
       ELAPSED TOTAL CPU TIME (SEC) =   0.0000    
       ELAPSED WALLCLOCK TIME (SEC) =          0
 

 ***WARNING: THE SYSTEM MATRIX HAS 2 NEGATIVE EIGENVALUES.
             EXPLANATIONS ARE SUGGESTED AFTER THE FIRST OCCURRENCE OF THIS MESSAGE.

               CONVERGENCE CHECKS FOR EQUILIBRIUM ITERATION     1


 AVERAGE FORCE                      2.100E+04   TIME AVG. FORCE       1.341E+04
 LARGEST RESIDUAL FORCE            -0.316       AT NODE          3   DOF  1
 LARGEST INCREMENT OF DISP.        -8.298E-04   AT NODE          3   DOF  1
 LARGEST CORRECTION TO DISP.       -8.298E-04   AT NODE          3   DOF  1
 ESTIMATE OF DISP.    CORRECTION   -1.048E-07
 FORCE     EQUILIB. ACCEPTED BASED ON SMALL RESIDUAL AND ESTIMATED CORRECTION

 ITERATION SUMMARY FOR THE INCREMENT:   1 TOTAL ITERATIONS, OF WHICH
   0 ARE SEVERE DISCONTINUITY ITERATIONS AND  1 ARE EQUILIBRIUM ITERATIONS.

 CURRENT VALUE OF MONITOR NODE          3 D.O.F.  1 IS   1.812E-02

 TIME INCREMENT COMPLETED  0.100    ,  FRACTION OF STEP COMPLETED  0.733    
 STEP TIME COMPLETED        2.20    ,  TOTAL TIME COMPLETED         2.20    


  INCREMENT    23 STARTS. ATTEMPT NUMBER  1, TIME INCREMENT  0.100    

  NUMBER OF EQUATIONS =        10     NUMBER OF RHS =    1
  NUMBER OF FLOATING PT. OPERATIONS =  1.77E+02

     CHECK POINT   START OF SOLVER    

     CHECK POINT  END OF SOLVER       

       ELAPSED USER TIME (SEC)      =   0.0000    
       ELAPSED SYSTEM TIME (SEC)    =   0.0000    
       ELAPSED TOTAL CPU TIME (SEC) =   0.0000    
       ELAPSED WALLCLOCK TIME (SEC) =          0
 

 ***WARNING: THE SYSTEM MATRIX HAS 2 NEGATIVE EIGENVALUES.
             EXPLANATIONS ARE SUGGESTED AFTER THE FIRST OCCURRENCE OF THIS MESSAGE.

               CONVERGENCE CHECKS FOR EQUILIBRIUM ITERATION     1


 AVERAGE FORCE                      1.950E+04   TIME AVG. FORCE       1.368E+04
 LARGEST RESIDUAL FORCE            -0.316       AT NODE          3   DOF  1
 LARGEST INCREMENT OF DISP.        -8.300E-04   AT NODE          3   DOF  1
 LARGEST CORRECTION TO DISP.       -8.300E-04   AT NODE          3   DOF  1
 ESTIMATE OF DISP.    CORRECTION   -1.047E-07
 FORCE     EQUILIB. ACCEPTED BASED ON SMALL RESIDUAL AND ESTIMATED CORRECTION

 ITERATION SUMMARY FOR THE INCREMENT:   1 TOTAL ITERATIONS, OF WHICH
   0 ARE SEVERE DISCONTINUITY ITERATIONS AND  1 ARE EQUILIBRIUM ITERATIONS.

 CURRENT VALUE OF MONITOR NODE          3 D.O.F.  1 IS   1.729E-02

 TIME INCREMENT COMPLETED  0.100    ,  FRACTION OF STEP COMPLETED  0.767    
 STEP TIME COMPLETED        2.30    ,  TOTAL TIME COMPLETED         2.30    


  INCREMENT    24 STARTS. ATTEMPT NUMBER  1, TIME INCREMENT  0.100    

  NUMBER OF EQUATIONS =        10     NUMBER OF RHS =    1
  NUMBER OF FLOATING PT. OPERATIONS =  1.77E+02

     CHECK POINT   START OF SOLVER    

     CHECK POINT  END OF SOLVER       

       ELAPSED USER TIME (SEC)      =   0.0000    
       ELAPSED SYSTEM TIME (SEC)    =   0.0000    
       ELAPSED TOTAL CPU TIME (SEC) =   0.0000    
       ELAPSED WALLCLOCK TIME (SEC) =          0
 

 ***WARNING: THE SYSTEM MATRIX HAS 2 NEGATIVE EIGENVALUES.
             EXPLANATIONS ARE SUGGESTED AFTER THE FIRST OCCURRENCE OF THIS MESSAGE.

               CONVERGENCE CHECKS FOR EQUILIBRIUM ITERATION     1


 AVERAGE FORCE                      1.800E+04   TIME AVG. FORCE       1.386E+04
 LARGEST RESIDUAL FORCE            -0.315       AT NODE          3   DOF  1
 LARGEST INCREMENT OF DISP.        -8.302E-04   AT NODE          3   DOF  1
 LARGEST CORRECTION TO DISP.       -8.302E-04   AT NODE          3   DOF  1
 ESTIMATE OF DISP.    CORRECTION   -1.047E-07
 FORCE     EQUILIB. ACCEPTED BASED ON SMALL RESIDUAL AND ESTIMATED CORRECTION

 ITERATION SUMMARY FOR THE INCREMENT:   1 TOTAL ITERATIONS, OF WHICH
   0 ARE SEVERE DISCONTINUITY ITERATIONS AND  1 ARE EQUILIBRIUM ITERATIONS.

 CURRENT VALUE OF MONITOR NODE          3 D.O.F.  1 IS   1.646E-02

 TIME INCREMENT COMPLETED  0.100    ,  FRACTION OF STEP COMPLETED  0.800    
 STEP TIME COMPLETED        2.40    ,  TOTAL TIME COMPLETED         2.40    


  INCREMENT    25 STARTS. ATTEMPT NUMBER  1, TIME INCREMENT  0.100    

  NUMBER OF EQUATIONS =        10     NUMBER OF RHS =    1
  NUMBER OF FLOATING PT. OPERATIONS =  1.77E+02

     CHECK POINT   START OF SOLVER    

     CHECK POINT  END OF SOLVER       

       ELAPSED USER TIME (SEC)      =   0.0000    
       ELAPSED SYSTEM TIME (SEC)    =   0.0000    
       ELAPSED TOTAL CPU TIME (SEC) =   0.0000    
       ELAPSED WALLCLOCK TIME (SEC) =          0
 

 ***WARNING: THE SYSTEM MATRIX HAS 2 NEGATIVE EIGENVALUES.
             EXPLANATIONS ARE SUGGESTED AFTER THE FIRST OCCURRENCE OF THIS MESSAGE.

               CONVERGENCE CHECKS FOR EQUILIBRIUM ITERATION     1


 AVERAGE FORCE                      1.650E+04   TIME AVG. FORCE       1.396E+04
 LARGEST RESIDUAL FORCE            -0.315       AT NODE          3   DOF  1
 LARGEST INCREMENT OF DISP.        -8.304E-04   AT NODE          3   DOF  1
 LARGEST CORRECTION TO DISP.       -8.304E-04   AT NODE          3   DOF  1
 ESTIMATE OF DISP.    CORRECTION   -1.047E-07
 FORCE     EQUILIB. ACCEPTED BASED ON SMALL RESIDUAL AND ESTIMATED CORRECTION

 ITERATION SUMMARY FOR THE INCREMENT:   1 TOTAL ITERATIONS, OF WHICH
   0 ARE SEVERE DISCONTINUITY ITERATIONS AND  1 ARE EQUILIBRIUM ITERATIONS.

 CURRENT VALUE OF MONITOR NODE          3 D.O.F.  1 IS   1.563E-02

 TIME INCREMENT COMPLETED  0.100    ,  FRACTION OF STEP COMPLETED  0.833    
 STEP TIME COMPLETED        2.50    ,  TOTAL TIME COMPLETED         2.50    


  INCREMENT    26 STARTS. ATTEMPT NUMBER  1, TIME INCREMENT  0.100    

  NUMBER OF EQUATIONS =        10     NUMBER OF RHS =    1
  NUMBER OF FLOATING PT. OPERATIONS =  1.77E+02

     CHECK POINT   START OF SOLVER    

     CHECK POINT  END OF SOLVER       

       ELAPSED USER TIME (SEC)      =   0.0000    
       ELAPSED SYSTEM TIME (SEC)    =   0.0000    
       ELAPSED TOTAL CPU TIME (SEC) =   0.0000    
       ELAPSED WALLCLOCK TIME (SEC) =          0
 

 ***WARNING: THE SYSTEM MATRIX HAS 2 NEGATIVE EIGENVALUES.
             EXPLANATIONS ARE SUGGESTED AFTER THE FIRST OCCURRENCE OF THIS MESSAGE.

               CONVERGENCE CHECKS FOR EQUILIBRIUM ITERATION     1


 AVERAGE FORCE                      1.500E+04   TIME AVG. FORCE       1.400E+04
 LARGEST RESIDUAL FORCE            -0.315       AT NODE          3   DOF  1
 LARGEST INCREMENT OF DISP.        -8.306E-04   AT NODE          3   DOF  1
 LARGEST CORRECTION TO DISP.       -8.306E-04   AT NODE          3   DOF  1
 ESTIMATE OF DISP.    CORRECTION   -1.047E-07
 FORCE     EQUILIB. ACCEPTED BASED ON SMALL RESIDUAL AND ESTIMATED CORRECTION

 ITERATION SUMMARY FOR THE INCREMENT:   1 TOTAL ITERATIONS, OF WHICH
   0 ARE SEVERE DISCONTINUITY ITERATIONS AND  1 ARE EQUILIBRIUM ITERATIONS.

 CURRENT VALUE OF MONITOR NODE          3 D.O.F.  1 IS   1.480E-02

 TIME INCREMENT COMPLETED  0.100    ,  FRACTION OF STEP COMPLETED  0.867    
 STEP TIME COMPLETED        2.60    ,  TOTAL TIME COMPLETED         2.60    


  INCREMENT    27 STARTS. ATTEMPT NUMBER  1, TIME INCREMENT  0.100    

  NUMBER OF EQUATIONS =        10     NUMBER OF RHS =    1
  NUMBER OF FLOATING PT. OPERATIONS =  1.77E+02

     CHECK POINT   START OF SOLVER    

     CHECK POINT  END OF SOLVER       

       ELAPSED USER TIME (SEC)      =   0.0000    
       ELAPSED SYSTEM TIME (SEC)    =   0.0000    
       ELAPSED TOTAL CPU TIME (SEC) =   0.0000    
       ELAPSED WALLCLOCK TIME (SEC) =          0
 

 ***WARNING: THE SYSTEM MATRIX HAS 2 NEGATIVE EIGENVALUES.
             EXPLANATIONS ARE SUGGESTED AFTER THE FIRST OCCURRENCE OF THIS MESSAGE.

               CONVERGENCE CHECKS FOR EQUILIBRIUM ITERATION     1


 AVERAGE FORCE                      1.350E+04   TIME AVG. FORCE       1.398E+04
 LARGEST RESIDUAL FORCE            -0.315       AT NODE          3   DOF  1
 LARGEST INCREMENT OF DISP.        -8.308E-04   AT NODE          3   DOF  1
 LARGEST CORRECTION TO DISP.       -8.308E-04   AT NODE          3   DOF  1
 ESTIMATE OF DISP.    CORRECTION   -1.047E-07
 FORCE     EQUILIB. ACCEPTED BASED ON SMALL RESIDUAL AND ESTIMATED CORRECTION

 ITERATION SUMMARY FOR THE INCREMENT:   1 TOTAL ITERATIONS, OF WHICH
   0 ARE SEVERE DISCONTINUITY ITERATIONS AND  1 ARE EQUILIBRIUM ITERATIONS.

 CURRENT VALUE OF MONITOR NODE          3 D.O.F.  1 IS   1.397E-02

 TIME INCREMENT COMPLETED  0.100    ,  FRACTION OF STEP COMPLETED  0.900    
 STEP TIME COMPLETED        2.70    ,  TOTAL TIME COMPLETED         2.70    


  INCREMENT    28 STARTS. ATTEMPT NUMBER  1, TIME INCREMENT  0.100    

  NUMBER OF EQUATIONS =        10     NUMBER OF RHS =    1
  NUMBER OF FLOATING PT. OPERATIONS =  1.77E+02

     CHECK POINT   START OF SOLVER    

     CHECK POINT  END OF SOLVER       

       ELAPSED USER TIME (SEC)      =   0.0000    
       ELAPSED SYSTEM TIME (SEC)    =   0.0000    
       ELAPSED TOTAL CPU TIME (SEC) =   0.0000    
       ELAPSED WALLCLOCK TIME (SEC) =          0
 

 ***WARNING: THE SYSTEM MATRIX HAS 2 NEGATIVE EIGENVALUES.
             EXPLANATIONS ARE SUGGESTED AFTER THE FIRST OCCURRENCE OF THIS MESSAGE.

               CONVERGENCE CHECKS FOR EQUILIBRIUM ITERATION     1


 AVERAGE FORCE                      1.200E+04   TIME AVG. FORCE       1.391E+04
 LARGEST RESIDUAL FORCE            -0.315       AT NODE          3   DOF  1
 LARGEST INCREMENT OF DISP.        -8.310E-04   AT NODE          3   DOF  1
 LARGEST CORRECTION TO DISP.       -8.310E-04   AT NODE          3   DOF  1
 ESTIMATE OF DISP.    CORRECTION   -1.047E-07
 FORCE     EQUILIB. ACCEPTED BASED ON SMALL RESIDUAL AND ESTIMATED CORRECTION

 ITERATION SUMMARY FOR THE INCREMENT:   1 TOTAL ITERATIONS, OF WHICH
   0 ARE SEVERE DISCONTINUITY ITERATIONS AND  1 ARE EQUILIBRIUM ITERATIONS.

 CURRENT VALUE OF MONITOR NODE          3 D.O.F.  1 IS   1.314E-02

 TIME INCREMENT COMPLETED  0.100    ,  FRACTION OF STEP COMPLETED  0.933    
 STEP TIME COMPLETED        2.80    ,  TOTAL TIME COMPLETED         2.80    


  INCREMENT    29 STARTS. ATTEMPT NUMBER  1, TIME INCREMENT  0.100    

  NUMBER OF EQUATIONS =        10     NUMBER OF RHS =    1
  NUMBER OF FLOATING PT. OPERATIONS =  1.77E+02

     CHECK POINT   START OF SOLVER    

     CHECK POINT  END OF SOLVER       

       ELAPSED USER TIME (SEC)      =   0.0000    
       ELAPSED SYSTEM TIME (SEC)    =   0.0000    
       ELAPSED TOTAL CPU TIME (SEC) =   0.0000    
       ELAPSED WALLCLOCK TIME (SEC) =          0
 

 ***WARNING: THE SYSTEM MATRIX HAS 2 NEGATIVE EIGENVALUES.
             EXPLANATIONS ARE SUGGESTED AFTER THE FIRST OCCURRENCE OF THIS MESSAGE.

               CONVERGENCE CHECKS FOR EQUILIBRIUM ITERATION     1


 AVERAGE FORCE                      1.050E+04   TIME AVG. FORCE       1.380E+04
 LARGEST RESIDUAL FORCE            -0.315       AT NODE          3   DOF  1
 LARGEST INCREMENT OF DISP.        -8.312E-04   AT NODE          3   DOF  1
 LARGEST CORRECTION TO DISP.       -8.312E-04   AT NODE          3   DOF  1
 ESTIMATE OF DISP.    CORRECTION   -1.047E-07
 FORCE     EQUILIB. ACCEPTED BASED ON SMALL RESIDUAL AND ESTIMATED CORRECTION

 ITERATION SUMMARY FOR THE INCREMENT:   1 TOTAL ITERATIONS, OF WHICH
   0 ARE SEVERE DISCONTINUITY ITERATIONS AND  1 ARE EQUILIBRIUM ITERATIONS.

 CURRENT VALUE OF MONITOR NODE          3 D.O.F.  1 IS   1.231E-02

 TIME INCREMENT COMPLETED  0.100    ,  FRACTION OF STEP COMPLETED  0.967    
 STEP TIME COMPLETED        2.90    ,  TOTAL TIME COMPLETED         2.90    


  INCREMENT    30 STARTS. ATTEMPT NUMBER  1, TIME INCREMENT  0.100    

  NUMBER OF EQUATIONS =        10     NUMBER OF RHS =    1
  NUMBER OF FLOATING PT. OPERATIONS =  1.77E+02

     CHECK POINT   START OF SOLVER    

     CHECK POINT  END OF SOLVER       

       ELAPSED USER TIME (SEC)      =   0.0000    
       ELAPSED SYSTEM TIME (SEC)    =   0.0000    
       ELAPSED TOTAL CPU TIME (SEC) =   0.0000    
       ELAPSED WALLCLOCK TIME (SEC) =          0
 

 ***WARNING: THE SYSTEM MATRIX HAS 1 NEGATIVE EIGENVALUES.
             EXPLANATIONS ARE SUGGESTED AFTER THE FIRST OCCURRENCE OF THIS MESSAGE.

               CONVERGENCE CHECKS FOR EQUILIBRIUM ITERATION     1


 AVERAGE FORCE                      9.000E+03   TIME AVG. FORCE       1.364E+04
 LARGEST RESIDUAL FORCE            -0.315       AT NODE          3   DOF  1
 LARGEST INCREMENT OF DISP.        -8.314E-04   AT NODE          3   DOF  1
 LARGEST CORRECTION TO DISP.       -8.314E-04   AT NODE          3   DOF  1
 ESTIMATE OF DISP.    CORRECTION   -1.046E-07
 FORCE     EQUILIB. ACCEPTED BASED ON SMALL RESIDUAL AND ESTIMATED CORRECTION

 ITERATION SUMMARY FOR THE INCREMENT:   1 TOTAL ITERATIONS, OF WHICH
   0 ARE SEVERE DISCONTINUITY ITERATIONS AND  1 ARE EQUILIBRIUM ITERATIONS.

 CURRENT VALUE OF MONITOR NODE          3 D.O.F.  1 IS   1.148E-02

 TIME INCREMENT COMPLETED  0.100    ,  FRACTION OF STEP COMPLETED   1.00    
 STEP TIME COMPLETED        3.00    ,  TOTAL TIME COMPLETED         3.00    


          THE ANALYSIS HAS BEEN COMPLETED



     ANALYSIS SUMMARY:
     TOTAL OF         30  INCREMENTS
                       0  CUTBACKS IN AUTOMATIC INCREMENTATION
                      36  ITERATIONS INCLUDING CONTACT ITERATIONS IF PRESENT
                      36  PASSES THROUGH THE EQUATION SOLVER OF WHICH 
                      36  INVOLVE MATRIX DECOMPOSITION, INCLUDING
                       0  DECOMPOSITION(S) OF THE MASS MATRIX
                       1  REORDERING OF EQUATIONS TO MINIMIZE WAVEFRONT
                       0  ADDITIONAL RESIDUAL EVALUATIONS FOR LINE SEARCHES
                       0  ADDITIONAL OPERATOR EVALUATIONS FOR LINE SEARCHES
                       0  WARNING MESSAGES DURING USER INPUT PROCESSING
                      35  WARNING MESSAGES DURING ANALYSIS
                       0  ANALYSIS WARNINGS ARE NUMERICAL PROBLEM MESSAGES
                      35  ANALYSIS WARNINGS ARE NEGATIVE EIGENVALUE MESSAGES
                       0  ERROR MESSAGES



     JOB TIME SUMMARY
       USER TIME (SEC)      =  0.50000    
       SYSTEM TIME (SEC)    =  0.30000    
       TOTAL CPU TIME (SEC) =  0.80000    
       WALLCLOCK TIME (SEC) =          1
