1

   Abaqus 3DEXPERIENCE R2018x                                  Date 22-Feb-2022   Time 12:44:49
   For use by INDIAN INSTITUTE OF TECHNOLOGY BOMBAY under license from Dassault Systemes or its subsidiary.



                         The Abaqus Software is a product of:

                           Dassault Systemes SIMULIA Corp.
                           1301 Atwood Avenue, Suite 101W
                              Johnston, RI 02919, USA
 


                   The Abaqus Software is available only under license
                   from Dassault Systemes or its subsidiary and may be
                   used or reproduced only in accordance with the terms
                   of such license.
 
                          On machine LAPTOP-BRO9FT16 
                          you are authorized to run
                          Abaqus/Standard until 15-Aug-2022

                          Your site id is: 200000000020602 


 
                    For assistance or any other information you may
                    obtain contact information for your local office
                    from the world wide web at:

                      http://www.3ds.com/products/simulia/locations/

 
                * * * * * * * * * * * * * * * * * * * * * * * * * * * * * * 
                *                                                         * 
                *                   *****************                     * 
                *                   *  N O T I C E  *                     * 
                *                   *****************                     * 
                *                                                         * 
                *                                                         * 
                *               Abaqus 3DEXPERIENCE R2018x                * 
                *                                                         * 
                *          BUILD ID: 2017_11_07-22.51.41 127140           * 
                *                                                         * 
                *                                                         * 
                *  Please make sure you are using                         * 
                *  release 3DEXPERIENCE R2018x manuals                    * 
                *  plus the notes accompanying this release.              * 
                *                                                         * 
                *                                                         * 
                *                                                         * 
                *                                                         * 
                *                                                         * 
                *   This program may not be used for commercial purposes  * 
                *           without payment of a commercial fee.          * 
                *                                                         * 
                * * * * * * * * * * * * * * * * * * * * * * * * * * * * * * 


 



     PROCESSING PART, INSTANCE, AND ASSEMBLY INFORMATION
   *******************************************************


     END PROCESSING PART, INSTANCE, AND ASSEMBLY INFORMATION
   ***********************************************************




     OPTIONS BEING PROCESSED
   ***************************


  *user element,type=U4, nodes=4, coordinates=2, properties=2, VARIABLES=40
  *Heading
  *Node
  *Element, type=U4, elset=plate_with_hole
  *Nset, nset=Set-1, generate
  *Elset, elset=Set-1, generate
  *Nset, nset=Plate_NodesAlongXAxis
  *Elset, elset=Plate_NodesAlongXAxis, generate
  *Nset, nset=Plate_NodesAlongYAxis
  *Elset, elset=Plate_NodesAlongYAxis
  *Nset, nset=BC1_Nodes
  *Elset, elset=BC1_Nodes, generate
  *Nset, nset=BC2_Nodes
  *Elset, elset=BC2_Nodes
  *user element,type=U4, nodes=4, coordinates=2, properties=2, VARIABLES=40
  *Boundary
  *Boundary
  *Boundary
  *Boundary
  *uel property, elset=plate_with_hole
  *Output, field, variable=PRESELECT
  *Output, history, variable=PRESELECT
  *Output, field, variable=PRESELECT
  *Output, history, variable=PRESELECT
  *Output, field, variable=PRESELECT
  *Output, history, variable=PRESELECT
  *Step, name=Step-1, nlgeom=NO
  *Output, field, variable=PRESELECT
  *Output, history, variable=PRESELECT
  *Step, name=Step-1, nlgeom=NO
  *Step, name=Step-1, nlgeom=NO
  *Static
  *Boundary
  *Boundary
  *Output, field, variable=PRESELECT
  *Output, history, variable=PRESELECT
  *node print
  *EL PRINT, Elset=plate_with_hole, POSITION=INTEGRATION POINTS
  *End Step
  *Step, name=Step-1, nlgeom=NO
  *Static
  *Boundary
  *Boundary
  *CLOAD, REAL
  *End Step



                            P R O B L E M   S I Z E


          NUMBER OF ELEMENTS IS                                   201
          NUMBER OF NODES IS                                      233
          NUMBER OF NODES DEFINED BY THE USER                     233
          TOTAL NUMBER OF VARIABLES IN THE MODEL                  466
          (DEGREES OF FREEDOM PLUS MAX NO. OF ANY LAGRANGE MULTIPLIER
           VARIABLES. INCLUDE *PRINT,SOLVE=YES TO GET THE ACTUAL NUMBER.)



                              END OF USER INPUT PROCESSING



     JOB TIME SUMMARY
       USER TIME (SEC)      =   0.0000    
       SYSTEM TIME (SEC)    =  0.10000    
       TOTAL CPU TIME (SEC) =  0.10000    
       WALLCLOCK TIME (SEC) =          0
1

   Abaqus 3DEXPERIENCE R2018x                                  Date 22-Feb-2022   Time 12:44:52
   For use by INDIAN INSTITUTE OF TECHNOLOGY BOMBAY under license from Dassault Systemes or its subsidiary.

                                                                                               STEP    1  INCREMENT    1
                                                                                          TIME COMPLETED IN THIS STEP   0.00    


                        S T E P       1     S T A T I C   A N A L Y S I S


                                                                                          

     AUTOMATIC TIME CONTROL WITH -
          A SUGGESTED INITIAL TIME INCREMENT OF                 1.00    
          AND A TOTAL TIME PERIOD OF                            1.00    
          THE MINIMUM TIME INCREMENT ALLOWED IS                1.000E-05
          THE MAXIMUM TIME INCREMENT ALLOWED IS                 1.00    

     LINEAR EQUATION SOLVER TYPE         DIRECT SPARSE
 D:\MTechDesign\Sem4\ME759_NonlinearFEM\Codes\Assignment1\fortran_code_output_4.
 csv                                                                            
                                                                                
                    
 D:\MTechDesign\Sem4\ME759_NonlinearFEM\Codes\Assignment1\                      
                                                                                
                                                                                
                    
 D:\MTechDesign\Sem4\ME759_NonlinearFEM\Codes\Assignment1\fortran_code_output_4.
 csv                                                                            
                                                                                
                    
 D:\MTechDesign\Sem4\ME759_NonlinearFEM\Codes\Assignment1\                      
                                                                                
                                                                                
                    
 D:\MTechDesign\Sem4\ME759_NonlinearFEM\Codes\Assignment1\fortran_code_output_4.
 csv                                                                            
                                                                                
                    
 D:\MTechDesign\Sem4\ME759_NonlinearFEM\Codes\Assignment1\                      
                                                                                
                                                                                
                    
 D:\MTechDesign\Sem4\ME759_NonlinearFEM\Codes\Assignment1\fortran_code_output_4.
 csv                                                                            
                                                                                
                    
 D:\MTechDesign\Sem4\ME759_NonlinearFEM\Codes\Assignment1\                      
                                                                                
                                                                                
                    
 D:\MTechDesign\Sem4\ME759_NonlinearFEM\Codes\Assignment1\fortran_code_output_4.
 csv                                                                            
                                                                                
                    
 D:\MTechDesign\Sem4\ME759_NonlinearFEM\Codes\Assignment1\                      
                                                                                
                                                                                
                    
 D:\MTechDesign\Sem4\ME759_NonlinearFEM\Codes\Assignment1\fortran_code_output_4.
 csv                                                                            
                                                                                
                    
 D:\MTechDesign\Sem4\ME759_NonlinearFEM\Codes\Assignment1\                      
                                                                                
                                                                                
                    
 D:\MTechDesign\Sem4\ME759_NonlinearFEM\Codes\Assignment1\fortran_code_output_4.
 csv                                                                            
                                                                                
                    
 D:\MTechDesign\Sem4\ME759_NonlinearFEM\Codes\Assignment1\                      
                                                                                
                                                                                
                    
 D:\MTechDesign\Sem4\ME759_NonlinearFEM\Codes\Assignment1\fortran_code_output_4.
 csv                                                                            
                                                                                
                    
 D:\MTechDesign\Sem4\ME759_NonlinearFEM\Codes\Assignment1\                      
                                                                                
                                                                                
                    
 D:\MTechDesign\Sem4\ME759_NonlinearFEM\Codes\Assignment1\fortran_code_output_4.
 csv                                                                            
                                                                                
                    
 D:\MTechDesign\Sem4\ME759_NonlinearFEM\Codes\Assignment1\                      
                                                                                
                                                                                
                    
 D:\MTechDesign\Sem4\ME759_NonlinearFEM\Codes\Assignment1\fortran_code_output_4.
 csv                                                                            
                                                                                
                    
 D:\MTechDesign\Sem4\ME759_NonlinearFEM\Codes\Assignment1\                      
                                                                                
                                                                                
                    
 D:\MTechDesign\Sem4\ME759_NonlinearFEM\Codes\Assignment1\fortran_code_output_4.
 csv                                                                            
                                                                                
                    
 D:\MTechDesign\Sem4\ME759_NonlinearFEM\Codes\Assignment1\                      
                                                                                
                                                                                
                    
 D:\MTechDesign\Sem4\ME759_NonlinearFEM\Codes\Assignment1\fortran_code_output_4.
 csv                                                                            
                                                                                
                    
 D:\MTechDesign\Sem4\ME759_NonlinearFEM\Codes\Assignment1\                      
                                                                                
                                                                                
                    
 D:\MTechDesign\Sem4\ME759_NonlinearFEM\Codes\Assignment1\fortran_code_output_4.
 csv                                                                            
                                                                                
                    
 D:\MTechDesign\Sem4\ME759_NonlinearFEM\Codes\Assignment1\                      
                                                                                
                                                                                
                    
 D:\MTechDesign\Sem4\ME759_NonlinearFEM\Codes\Assignment1\fortran_code_output_4.
 csv                                                                            
                                                                                
                    
 D:\MTechDesign\Sem4\ME759_NonlinearFEM\Codes\Assignment1\                      
                                                                                
                                                                                
                    
 D:\MTechDesign\Sem4\ME759_NonlinearFEM\Codes\Assignment1\fortran_code_output_4.
 csv                                                                            
                                                                                
                    
 D:\MTechDesign\Sem4\ME759_NonlinearFEM\Codes\Assignment1\                      
                                                                                
                                                                                
                    
 D:\MTechDesign\Sem4\ME759_NonlinearFEM\Codes\Assignment1\fortran_code_output_4.
 csv                                                                            
                                                                                
                    
 D:\MTechDesign\Sem4\ME759_NonlinearFEM\Codes\Assignment1\                      
                                                                                
                                                                                
                    
 D:\MTechDesign\Sem4\ME759_NonlinearFEM\Codes\Assignment1\fortran_code_output_4.
 csv                                                                            
                                                                                
                    
 D:\MTechDesign\Sem4\ME759_NonlinearFEM\Codes\Assignment1\                      
                                                                                
                                                                                
                    
 D:\MTechDesign\Sem4\ME759_NonlinearFEM\Codes\Assignment1\fortran_code_output_4.
 csv                                                                            
                                                                                
                    
 D:\MTechDesign\Sem4\ME759_NonlinearFEM\Codes\Assignment1\                      
                                                                                
                                                                                
                    
 D:\MTechDesign\Sem4\ME759_NonlinearFEM\Codes\Assignment1\fortran_code_output_4.
 csv                                                                            
                                                                                
                    
 D:\MTechDesign\Sem4\ME759_NonlinearFEM\Codes\Assignment1\                      
                                                                                
                                                                                
                    
 D:\MTechDesign\Sem4\ME759_NonlinearFEM\Codes\Assignment1\fortran_code_output_4.
 csv                                                                            
                                                                                
                    
 D:\MTechDesign\Sem4\ME759_NonlinearFEM\Codes\Assignment1\                      
                                                                                
                                                                                
                    
 D:\MTechDesign\Sem4\ME759_NonlinearFEM\Codes\Assignment1\fortran_code_output_4.
 csv                                                                            
                                                                                
                    
 D:\MTechDesign\Sem4\ME759_NonlinearFEM\Codes\Assignment1\                      
                                                                                
                                                                                
                    
 D:\MTechDesign\Sem4\ME759_NonlinearFEM\Codes\Assignment1\fortran_code_output_4.
 csv                                                                            
                                                                                
                    
 D:\MTechDesign\Sem4\ME759_NonlinearFEM\Codes\Assignment1\                      
                                                                                
                                                                                
                    
 D:\MTechDesign\Sem4\ME759_NonlinearFEM\Codes\Assignment1\fortran_code_output_4.
 csv                                                                            
                                                                                
                    
 D:\MTechDesign\Sem4\ME759_NonlinearFEM\Codes\Assignment1\                      
                                                                                
                                                                                
                    
 D:\MTechDesign\Sem4\ME759_NonlinearFEM\Codes\Assignment1\fortran_code_output_4.
 csv                                                                            
                                                                                
                    
 D:\MTechDesign\Sem4\ME759_NonlinearFEM\Codes\Assignment1\                      
                                                                                
                                                                                
                    
 D:\MTechDesign\Sem4\ME759_NonlinearFEM\Codes\Assignment1\fortran_code_output_4.
 csv                                                                            
                                                                                
                    
 D:\MTechDesign\Sem4\ME759_NonlinearFEM\Codes\Assignment1\                      
                                                                                
                                                                                
                    
 D:\MTechDesign\Sem4\ME759_NonlinearFEM\Codes\Assignment1\fortran_code_output_4.
 csv                                                                            
                                                                                
                    
 D:\MTechDesign\Sem4\ME759_NonlinearFEM\Codes\Assignment1\                      
                                                                                
                                                                                
                    
 D:\MTechDesign\Sem4\ME759_NonlinearFEM\Codes\Assignment1\fortran_code_output_4.
 csv                                                                            
                                                                                
                    
 D:\MTechDesign\Sem4\ME759_NonlinearFEM\Codes\Assignment1\                      
                                                                                
                                                                                
                    
 D:\MTechDesign\Sem4\ME759_NonlinearFEM\Codes\Assignment1\fortran_code_output_4.
 csv                                                                            
                                                                                
                    
 D:\MTechDesign\Sem4\ME759_NonlinearFEM\Codes\Assignment1\                      
                                                                                
                                                                                
                    
 D:\MTechDesign\Sem4\ME759_NonlinearFEM\Codes\Assignment1\fortran_code_output_4.
 csv                                                                            
                                                                                
                    
 D:\MTechDesign\Sem4\ME759_NonlinearFEM\Codes\Assignment1\                      
                                                                                
                                                                                
                    
 D:\MTechDesign\Sem4\ME759_NonlinearFEM\Codes\Assignment1\fortran_code_output_4.
 csv                                                                            
                                                                                
                    
 D:\MTechDesign\Sem4\ME759_NonlinearFEM\Codes\Assignment1\                      
                                                                                
                                                                                
                    
 D:\MTechDesign\Sem4\ME759_NonlinearFEM\Codes\Assignment1\fortran_code_output_4.
 csv                                                                            
                                                                                
                    
 D:\MTechDesign\Sem4\ME759_NonlinearFEM\Codes\Assignment1\                      
                                                                                
                                                                                
                    
 D:\MTechDesign\Sem4\ME759_NonlinearFEM\Codes\Assignment1\fortran_code_output_4.
 csv                                                                            
                                                                                
                    
 D:\MTechDesign\Sem4\ME759_NonlinearFEM\Codes\Assignment1\                      
                                                                                
                                                                                
                    
 D:\MTechDesign\Sem4\ME759_NonlinearFEM\Codes\Assignment1\fortran_code_output_4.
 csv                                                                            
                                                                                
                    
 D:\MTechDesign\Sem4\ME759_NonlinearFEM\Codes\Assignment1\                      
                                                                                
                                                                                
                    
 D:\MTechDesign\Sem4\ME759_NonlinearFEM\Codes\Assignment1\fortran_code_output_4.
 csv                                                                            
                                                                                
                    
 D:\MTechDesign\Sem4\ME759_NonlinearFEM\Codes\Assignment1\                      
                                                                                
                                                                                
                    
 D:\MTechDesign\Sem4\ME759_NonlinearFEM\Codes\Assignment1\fortran_code_output_4.
 csv                                                                            
                                                                                
                    
 D:\MTechDesign\Sem4\ME759_NonlinearFEM\Codes\Assignment1\                      
                                                                                
                                                                                
                    
 D:\MTechDesign\Sem4\ME759_NonlinearFEM\Codes\Assignment1\fortran_code_output_4.
 csv                                                                            
                                                                                
                    
 D:\MTechDesign\Sem4\ME759_NonlinearFEM\Codes\Assignment1\                      
                                                                                
                                                                                
                    
 D:\MTechDesign\Sem4\ME759_NonlinearFEM\Codes\Assignment1\fortran_code_output_4.
 csv                                                                            
                                                                                
                    
 D:\MTechDesign\Sem4\ME759_NonlinearFEM\Codes\Assignment1\                      
                                                                                
                                                                                
                    
 D:\MTechDesign\Sem4\ME759_NonlinearFEM\Codes\Assignment1\fortran_code_output_4.
 csv                                                                            
                                                                                
                    
 D:\MTechDesign\Sem4\ME759_NonlinearFEM\Codes\Assignment1\                      
                                                                                
                                                                                
                    
 D:\MTechDesign\Sem4\ME759_NonlinearFEM\Codes\Assignment1\fortran_code_output_4.
 csv                                                                            
                                                                                
                    
 D:\MTechDesign\Sem4\ME759_NonlinearFEM\Codes\Assignment1\                      
                                                                                
                                                                                
                    
 D:\MTechDesign\Sem4\ME759_NonlinearFEM\Codes\Assignment1\fortran_code_output_4.
 csv                                                                            
                                                                                
                    
 D:\MTechDesign\Sem4\ME759_NonlinearFEM\Codes\Assignment1\                      
                                                                                
                                                                                
                    
 D:\MTechDesign\Sem4\ME759_NonlinearFEM\Codes\Assignment1\fortran_code_output_4.
 csv                                                                            
                                                                                
                    
 D:\MTechDesign\Sem4\ME759_NonlinearFEM\Codes\Assignment1\                      
                                                                                
                                                                                
                    
 D:\MTechDesign\Sem4\ME759_NonlinearFEM\Codes\Assignment1\fortran_code_output_4.
 csv                                                                            
                                                                                
                    
 D:\MTechDesign\Sem4\ME759_NonlinearFEM\Codes\Assignment1\                      
                                                                                
                                                                                
                    
 D:\MTechDesign\Sem4\ME759_NonlinearFEM\Codes\Assignment1\fortran_code_output_4.
 csv                                                                            
                                                                                
                    
 D:\MTechDesign\Sem4\ME759_NonlinearFEM\Codes\Assignment1\                      
                                                                                
                                                                                
                    
 D:\MTechDesign\Sem4\ME759_NonlinearFEM\Codes\Assignment1\fortran_code_output_4.
 csv                                                                            
                                                                                
                    
 D:\MTechDesign\Sem4\ME759_NonlinearFEM\Codes\Assignment1\                      
                                                                                
                                                                                
                    
 D:\MTechDesign\Sem4\ME759_NonlinearFEM\Codes\Assignment1\fortran_code_output_4.
 csv                                                                            
                                                                                
                    
 D:\MTechDesign\Sem4\ME759_NonlinearFEM\Codes\Assignment1\                      
                                                                                
                                                                                
                    
 D:\MTechDesign\Sem4\ME759_NonlinearFEM\Codes\Assignment1\fortran_code_output_4.
 csv                                                                            
                                                                                
                    
 D:\MTechDesign\Sem4\ME759_NonlinearFEM\Codes\Assignment1\                      
                                                                                
                                                                                
                    
 D:\MTechDesign\Sem4\ME759_NonlinearFEM\Codes\Assignment1\fortran_code_output_4.
 csv                                                                            
                                                                                
                    
 D:\MTechDesign\Sem4\ME759_NonlinearFEM\Codes\Assignment1\                      
                                                                                
                                                                                
                    
 D:\MTechDesign\Sem4\ME759_NonlinearFEM\Codes\Assignment1\fortran_code_output_4.
 csv                                                                            
                                                                                
                    
 D:\MTechDesign\Sem4\ME759_NonlinearFEM\Codes\Assignment1\                      
                                                                                
                                                                                
                    
 D:\MTechDesign\Sem4\ME759_NonlinearFEM\Codes\Assignment1\fortran_code_output_4.
 csv                                                                            
                                                                                
                    
 D:\MTechDesign\Sem4\ME759_NonlinearFEM\Codes\Assignment1\                      
                                                                                
                                                                                
                    
 D:\MTechDesign\Sem4\ME759_NonlinearFEM\Codes\Assignment1\fortran_code_output_4.
 csv                                                                            
                                                                                
                    
 D:\MTechDesign\Sem4\ME759_NonlinearFEM\Codes\Assignment1\                      
                                                                                
                                                                                
                    
 D:\MTechDesign\Sem4\ME759_NonlinearFEM\Codes\Assignment1\fortran_code_output_4.
 csv                                                                            
                                                                                
                    
 D:\MTechDesign\Sem4\ME759_NonlinearFEM\Codes\Assignment1\                      
                                                                                
                                                                                
                    
 D:\MTechDesign\Sem4\ME759_NonlinearFEM\Codes\Assignment1\fortran_code_output_4.
 csv                                                                            
                                                                                
                    
 D:\MTechDesign\Sem4\ME759_NonlinearFEM\Codes\Assignment1\                      
                                                                                
                                                                                
                    
 D:\MTechDesign\Sem4\ME759_NonlinearFEM\Codes\Assignment1\fortran_code_output_4.
 csv                                                                            
                                                                                
                    
 D:\MTechDesign\Sem4\ME759_NonlinearFEM\Codes\Assignment1\                      
                                                                                
                                                                                
                    
 D:\MTechDesign\Sem4\ME759_NonlinearFEM\Codes\Assignment1\fortran_code_output_4.
 csv                                                                            
                                                                                
                    
 D:\MTechDesign\Sem4\ME759_NonlinearFEM\Codes\Assignment1\                      
                                                                                
                                                                                
                    
 D:\MTechDesign\Sem4\ME759_NonlinearFEM\Codes\Assignment1\fortran_code_output_4.
 csv                                                                            
                                                                                
                    
 D:\MTechDesign\Sem4\ME759_NonlinearFEM\Codes\Assignment1\                      
                                                                                
                                                                                
                    
 D:\MTechDesign\Sem4\ME759_NonlinearFEM\Codes\Assignment1\fortran_code_output_4.
 csv                                                                            
                                                                                
                    
 D:\MTechDesign\Sem4\ME759_NonlinearFEM\Codes\Assignment1\                      
                                                                                
                                                                                
                    
 D:\MTechDesign\Sem4\ME759_NonlinearFEM\Codes\Assignment1\fortran_code_output_4.
 csv                                                                            
                                                                                
                    
 D:\MTechDesign\Sem4\ME759_NonlinearFEM\Codes\Assignment1\                      
                                                                                
                                                                                
                    
 D:\MTechDesign\Sem4\ME759_NonlinearFEM\Codes\Assignment1\fortran_code_output_4.
 csv                                                                            
                                                                                
                    
 D:\MTechDesign\Sem4\ME759_NonlinearFEM\Codes\Assignment1\                      
                                                                                
                                                                                
                    
 D:\MTechDesign\Sem4\ME759_NonlinearFEM\Codes\Assignment1\fortran_code_output_4.
 csv                                                                            
                                                                                
                    
 D:\MTechDesign\Sem4\ME759_NonlinearFEM\Codes\Assignment1\                      
                                                                                
                                                                                
                    
 D:\MTechDesign\Sem4\ME759_NonlinearFEM\Codes\Assignment1\fortran_code_output_4.
 csv                                                                            
                                                                                
                    
 D:\MTechDesign\Sem4\ME759_NonlinearFEM\Codes\Assignment1\                      
                                                                                
                                                                                
                    
 D:\MTechDesign\Sem4\ME759_NonlinearFEM\Codes\Assignment1\fortran_code_output_4.
 csv                                                                            
                                                                                
                    
 D:\MTechDesign\Sem4\ME759_NonlinearFEM\Codes\Assignment1\                      
                                                                                
                                                                                
                    
 D:\MTechDesign\Sem4\ME759_NonlinearFEM\Codes\Assignment1\fortran_code_output_4.
 csv                                                                            
                                                                                
                    
 D:\MTechDesign\Sem4\ME759_NonlinearFEM\Codes\Assignment1\                      
                                                                                
                                                                                
                    
 D:\MTechDesign\Sem4\ME759_NonlinearFEM\Codes\Assignment1\fortran_code_output_4.
 csv                                                                            
                                                                                
                    
 D:\MTechDesign\Sem4\ME759_NonlinearFEM\Codes\Assignment1\                      
                                                                                
                                                                                
                    
 D:\MTechDesign\Sem4\ME759_NonlinearFEM\Codes\Assignment1\fortran_code_output_4.
 csv                                                                            
                                                                                
                    
 D:\MTechDesign\Sem4\ME759_NonlinearFEM\Codes\Assignment1\                      
                                                                                
                                                                                
                    
 D:\MTechDesign\Sem4\ME759_NonlinearFEM\Codes\Assignment1\fortran_code_output_4.
 csv                                                                            
                                                                                
                    
 D:\MTechDesign\Sem4\ME759_NonlinearFEM\Codes\Assignment1\                      
                                                                                
                                                                                
                    
 D:\MTechDesign\Sem4\ME759_NonlinearFEM\Codes\Assignment1\fortran_code_output_4.
 csv                                                                            
                                                                                
                    
 D:\MTechDesign\Sem4\ME759_NonlinearFEM\Codes\Assignment1\                      
                                                                                
                                                                                
                    
 D:\MTechDesign\Sem4\ME759_NonlinearFEM\Codes\Assignment1\fortran_code_output_4.
 csv                                                                            
                                                                                
                    
 D:\MTechDesign\Sem4\ME759_NonlinearFEM\Codes\Assignment1\                      
                                                                                
                                                                                
                    
 D:\MTechDesign\Sem4\ME759_NonlinearFEM\Codes\Assignment1\fortran_code_output_4.
 csv                                                                            
                                                                                
                    
 D:\MTechDesign\Sem4\ME759_NonlinearFEM\Codes\Assignment1\                      
                                                                                
                                                                                
                    
 D:\MTechDesign\Sem4\ME759_NonlinearFEM\Codes\Assignment1\fortran_code_output_4.
 csv                                                                            
                                                                                
                    
 D:\MTechDesign\Sem4\ME759_NonlinearFEM\Codes\Assignment1\                      
                                                                                
                                                                                
                    
 D:\MTechDesign\Sem4\ME759_NonlinearFEM\Codes\Assignment1\fortran_code_output_4.
 csv                                                                            
                                                                                
                    
 D:\MTechDesign\Sem4\ME759_NonlinearFEM\Codes\Assignment1\                      
                                                                                
                                                                                
                    
 D:\MTechDesign\Sem4\ME759_NonlinearFEM\Codes\Assignment1\fortran_code_output_4.
 csv                                                                            
                                                                                
                    
 D:\MTechDesign\Sem4\ME759_NonlinearFEM\Codes\Assignment1\                      
                                                                                
                                                                                
                    
 D:\MTechDesign\Sem4\ME759_NonlinearFEM\Codes\Assignment1\fortran_code_output_4.
 csv                                                                            
                                                                                
                    
 D:\MTechDesign\Sem4\ME759_NonlinearFEM\Codes\Assignment1\                      
                                                                                
                                                                                
                    
 D:\MTechDesign\Sem4\ME759_NonlinearFEM\Codes\Assignment1\fortran_code_output_4.
 csv                                                                            
                                                                                
                    
 D:\MTechDesign\Sem4\ME759_NonlinearFEM\Codes\Assignment1\                      
                                                                                
                                                                                
                    
 D:\MTechDesign\Sem4\ME759_NonlinearFEM\Codes\Assignment1\fortran_code_output_4.
 csv                                                                            
                                                                                
                    
 D:\MTechDesign\Sem4\ME759_NonlinearFEM\Codes\Assignment1\                      
                                                                                
                                                                                
                    
 D:\MTechDesign\Sem4\ME759_NonlinearFEM\Codes\Assignment1\fortran_code_output_4.
 csv                                                                            
                                                                                
                    
 D:\MTechDesign\Sem4\ME759_NonlinearFEM\Codes\Assignment1\                      
                                                                                
                                                                                
                    
 D:\MTechDesign\Sem4\ME759_NonlinearFEM\Codes\Assignment1\fortran_code_output_4.
 csv                                                                            
                                                                                
                    
 D:\MTechDesign\Sem4\ME759_NonlinearFEM\Codes\Assignment1\                      
                                                                                
                                                                                
                    
 D:\MTechDesign\Sem4\ME759_NonlinearFEM\Codes\Assignment1\fortran_code_output_4.
 csv                                                                            
                                                                                
                    
 D:\MTechDesign\Sem4\ME759_NonlinearFEM\Codes\Assignment1\                      
                                                                                
                                                                                
                    
 D:\MTechDesign\Sem4\ME759_NonlinearFEM\Codes\Assignment1\fortran_code_output_4.
 csv                                                                            
                                                                                
                    
 D:\MTechDesign\Sem4\ME759_NonlinearFEM\Codes\Assignment1\                      
                                                                                
                                                                                
                    
 D:\MTechDesign\Sem4\ME759_NonlinearFEM\Codes\Assignment1\fortran_code_output_4.
 csv                                                                            
                                                                                
                    
 D:\MTechDesign\Sem4\ME759_NonlinearFEM\Codes\Assignment1\                      
                                                                                
                                                                                
                    
 D:\MTechDesign\Sem4\ME759_NonlinearFEM\Codes\Assignment1\fortran_code_output_4.
 csv                                                                            
                                                                                
                    
 D:\MTechDesign\Sem4\ME759_NonlinearFEM\Codes\Assignment1\                      
                                                                                
                                                                                
                    
 D:\MTechDesign\Sem4\ME759_NonlinearFEM\Codes\Assignment1\fortran_code_output_4.
 csv                                                                            
                                                                                
                    
 D:\MTechDesign\Sem4\ME759_NonlinearFEM\Codes\Assignment1\                      
                                                                                
                                                                                
                    
 D:\MTechDesign\Sem4\ME759_NonlinearFEM\Codes\Assignment1\fortran_code_output_4.
 csv                                                                            
                                                                                
                    
 D:\MTechDesign\Sem4\ME759_NonlinearFEM\Codes\Assignment1\                      
                                                                                
                                                                                
                    
 D:\MTechDesign\Sem4\ME759_NonlinearFEM\Codes\Assignment1\fortran_code_output_4.
 csv                                                                            
                                                                                
                    
 D:\MTechDesign\Sem4\ME759_NonlinearFEM\Codes\Assignment1\                      
                                                                                
                                                                                
                    
 D:\MTechDesign\Sem4\ME759_NonlinearFEM\Codes\Assignment1\fortran_code_output_4.
 csv                                                                            
                                                                                
                    
 D:\MTechDesign\Sem4\ME759_NonlinearFEM\Codes\Assignment1\                      
                                                                                
                                                                                
                    
 D:\MTechDesign\Sem4\ME759_NonlinearFEM\Codes\Assignment1\fortran_code_output_4.
 csv                                                                            
                                                                                
                    
 D:\MTechDesign\Sem4\ME759_NonlinearFEM\Codes\Assignment1\                      
                                                                                
                                                                                
                    
 D:\MTechDesign\Sem4\ME759_NonlinearFEM\Codes\Assignment1\fortran_code_output_4.
 csv                                                                            
                                                                                
                    
 D:\MTechDesign\Sem4\ME759_NonlinearFEM\Codes\Assignment1\                      
                                                                                
                                                                                
                    
 D:\MTechDesign\Sem4\ME759_NonlinearFEM\Codes\Assignment1\fortran_code_output_4.
 csv                                                                            
                                                                                
                    
 D:\MTechDesign\Sem4\ME759_NonlinearFEM\Codes\Assignment1\                      
                                                                                
                                                                                
                    
 D:\MTechDesign\Sem4\ME759_NonlinearFEM\Codes\Assignment1\fortran_code_output_4.
 csv                                                                            
                                                                                
                    
 D:\MTechDesign\Sem4\ME759_NonlinearFEM\Codes\Assignment1\                      
                                                                                
                                                                                
                    
 D:\MTechDesign\Sem4\ME759_NonlinearFEM\Codes\Assignment1\fortran_code_output_4.
 csv                                                                            
                                                                                
                    
 D:\MTechDesign\Sem4\ME759_NonlinearFEM\Codes\Assignment1\                      
                                                                                
                                                                                
                    
 D:\MTechDesign\Sem4\ME759_NonlinearFEM\Codes\Assignment1\fortran_code_output_4.
 csv                                                                            
                                                                                
                    
 D:\MTechDesign\Sem4\ME759_NonlinearFEM\Codes\Assignment1\                      
                                                                                
                                                                                
                    
 D:\MTechDesign\Sem4\ME759_NonlinearFEM\Codes\Assignment1\fortran_code_output_4.
 csv                                                                            
                                                                                
                    
 D:\MTechDesign\Sem4\ME759_NonlinearFEM\Codes\Assignment1\                      
                                                                                
                                                                                
                    
 D:\MTechDesign\Sem4\ME759_NonlinearFEM\Codes\Assignment1\fortran_code_output_4.
 csv                                                                            
                                                                                
                    
 D:\MTechDesign\Sem4\ME759_NonlinearFEM\Codes\Assignment1\                      
                                                                                
                                                                                
                    
 D:\MTechDesign\Sem4\ME759_NonlinearFEM\Codes\Assignment1\fortran_code_output_4.
 csv                                                                            
                                                                                
                    
 D:\MTechDesign\Sem4\ME759_NonlinearFEM\Codes\Assignment1\                      
                                                                                
                                                                                
                    
 D:\MTechDesign\Sem4\ME759_NonlinearFEM\Codes\Assignment1\fortran_code_output_4.
 csv                                                                            
                                                                                
                    
 D:\MTechDesign\Sem4\ME759_NonlinearFEM\Codes\Assignment1\                      
                                                                                
                                                                                
                    
 D:\MTechDesign\Sem4\ME759_NonlinearFEM\Codes\Assignment1\fortran_code_output_4.
 csv                                                                            
                                                                                
                    
 D:\MTechDesign\Sem4\ME759_NonlinearFEM\Codes\Assignment1\                      
                                                                                
                                                                                
                    
 D:\MTechDesign\Sem4\ME759_NonlinearFEM\Codes\Assignment1\fortran_code_output_4.
 csv                                                                            
                                                                                
                    
 D:\MTechDesign\Sem4\ME759_NonlinearFEM\Codes\Assignment1\                      
                                                                                
                                                                                
                    
 D:\MTechDesign\Sem4\ME759_NonlinearFEM\Codes\Assignment1\fortran_code_output_4.
 csv                                                                            
                                                                                
                    
 D:\MTechDesign\Sem4\ME759_NonlinearFEM\Codes\Assignment1\                      
                                                                                
                                                                                
                    
 D:\MTechDesign\Sem4\ME759_NonlinearFEM\Codes\Assignment1\fortran_code_output_4.
 csv                                                                            
                                                                                
                    
 D:\MTechDesign\Sem4\ME759_NonlinearFEM\Codes\Assignment1\                      
                                                                                
                                                                                
                    
 D:\MTechDesign\Sem4\ME759_NonlinearFEM\Codes\Assignment1\fortran_code_output_4.
 csv                                                                            
                                                                                
                    
 D:\MTechDesign\Sem4\ME759_NonlinearFEM\Codes\Assignment1\                      
                                                                                
                                                                                
                    
 D:\MTechDesign\Sem4\ME759_NonlinearFEM\Codes\Assignment1\fortran_code_output_4.
 csv                                                                            
                                                                                
                    
 D:\MTechDesign\Sem4\ME759_NonlinearFEM\Codes\Assignment1\                      
                                                                                
                                                                                
                    
 D:\MTechDesign\Sem4\ME759_NonlinearFEM\Codes\Assignment1\fortran_code_output_4.
 csv                                                                            
                                                                                
                    
 D:\MTechDesign\Sem4\ME759_NonlinearFEM\Codes\Assignment1\                      
                                                                                
                                                                                
                    
 D:\MTechDesign\Sem4\ME759_NonlinearFEM\Codes\Assignment1\fortran_code_output_4.
 csv                                                                            
                                                                                
                    
 D:\MTechDesign\Sem4\ME759_NonlinearFEM\Codes\Assignment1\                      
                                                                                
                                                                                
                    
 D:\MTechDesign\Sem4\ME759_NonlinearFEM\Codes\Assignment1\fortran_code_output_4.
 csv                                                                            
                                                                                
                    
 D:\MTechDesign\Sem4\ME759_NonlinearFEM\Codes\Assignment1\                      
                                                                                
                                                                                
                    
 D:\MTechDesign\Sem4\ME759_NonlinearFEM\Codes\Assignment1\fortran_code_output_4.
 csv                                                                            
                                                                                
                    
 D:\MTechDesign\Sem4\ME759_NonlinearFEM\Codes\Assignment1\                      
                                                                                
                                                                                
                    
 D:\MTechDesign\Sem4\ME759_NonlinearFEM\Codes\Assignment1\fortran_code_output_4.
 csv                                                                            
                                                                                
                    
 D:\MTechDesign\Sem4\ME759_NonlinearFEM\Codes\Assignment1\                      
                                                                                
                                                                                
                    
 D:\MTechDesign\Sem4\ME759_NonlinearFEM\Codes\Assignment1\fortran_code_output_4.
 csv                                                                            
                                                                                
                    
 D:\MTechDesign\Sem4\ME759_NonlinearFEM\Codes\Assignment1\                      
                                                                                
                                                                                
                    
 D:\MTechDesign\Sem4\ME759_NonlinearFEM\Codes\Assignment1\fortran_code_output_4.
 csv                                                                            
                                                                                
                    
 D:\MTechDesign\Sem4\ME759_NonlinearFEM\Codes\Assignment1\                      
                                                                                
                                                                                
                    
 D:\MTechDesign\Sem4\ME759_NonlinearFEM\Codes\Assignment1\fortran_code_output_4.
 csv                                                                            
                                                                                
                    
 D:\MTechDesign\Sem4\ME759_NonlinearFEM\Codes\Assignment1\                      
                                                                                
                                                                                
                    
 D:\MTechDesign\Sem4\ME759_NonlinearFEM\Codes\Assignment1\fortran_code_output_4.
 csv                                                                            
                                                                                
                    
 D:\MTechDesign\Sem4\ME759_NonlinearFEM\Codes\Assignment1\                      
                                                                                
                                                                                
                    
 D:\MTechDesign\Sem4\ME759_NonlinearFEM\Codes\Assignment1\fortran_code_output_4.
 csv                                                                            
                                                                                
                    
 D:\MTechDesign\Sem4\ME759_NonlinearFEM\Codes\Assignment1\                      
                                                                                
                                                                                
                    
 D:\MTechDesign\Sem4\ME759_NonlinearFEM\Codes\Assignment1\fortran_code_output_4.
 csv                                                                            
                                                                                
                    
 D:\MTechDesign\Sem4\ME759_NonlinearFEM\Codes\Assignment1\                      
                                                                                
                                                                                
                    
 D:\MTechDesign\Sem4\ME759_NonlinearFEM\Codes\Assignment1\fortran_code_output_4.
 csv                                                                            
                                                                                
                    
 D:\MTechDesign\Sem4\ME759_NonlinearFEM\Codes\Assignment1\                      
                                                                                
                                                                                
                    
 D:\MTechDesign\Sem4\ME759_NonlinearFEM\Codes\Assignment1\fortran_code_output_4.
 csv                                                                            
                                                                                
                    
 D:\MTechDesign\Sem4\ME759_NonlinearFEM\Codes\Assignment1\                      
                                                                                
                                                                                
                    
 D:\MTechDesign\Sem4\ME759_NonlinearFEM\Codes\Assignment1\fortran_code_output_4.
 csv                                                                            
                                                                                
                    
 D:\MTechDesign\Sem4\ME759_NonlinearFEM\Codes\Assignment1\                      
                                                                                
                                                                                
                    
 D:\MTechDesign\Sem4\ME759_NonlinearFEM\Codes\Assignment1\fortran_code_output_4.
 csv                                                                            
                                                                                
                    
 D:\MTechDesign\Sem4\ME759_NonlinearFEM\Codes\Assignment1\                      
                                                                                
                                                                                
                    
 D:\MTechDesign\Sem4\ME759_NonlinearFEM\Codes\Assignment1\fortran_code_output_4.
 csv                                                                            
                                                                                
                    
 D:\MTechDesign\Sem4\ME759_NonlinearFEM\Codes\Assignment1\                      
                                                                                
                                                                                
                    
 D:\MTechDesign\Sem4\ME759_NonlinearFEM\Codes\Assignment1\fortran_code_output_4.
 csv                                                                            
                                                                                
                    
 D:\MTechDesign\Sem4\ME759_NonlinearFEM\Codes\Assignment1\                      
                                                                                
                                                                                
                    
 D:\MTechDesign\Sem4\ME759_NonlinearFEM\Codes\Assignment1\fortran_code_output_4.
 csv                                                                            
                                                                                
                    
 D:\MTechDesign\Sem4\ME759_NonlinearFEM\Codes\Assignment1\                      
                                                                                
                                                                                
                    
 D:\MTechDesign\Sem4\ME759_NonlinearFEM\Codes\Assignment1\fortran_code_output_4.
 csv                                                                            
                                                                                
                    
 D:\MTechDesign\Sem4\ME759_NonlinearFEM\Codes\Assignment1\                      
                                                                                
                                                                                
                    
 D:\MTechDesign\Sem4\ME759_NonlinearFEM\Codes\Assignment1\fortran_code_output_4.
 csv                                                                            
                                                                                
                    
 D:\MTechDesign\Sem4\ME759_NonlinearFEM\Codes\Assignment1\                      
                                                                                
                                                                                
                    
 D:\MTechDesign\Sem4\ME759_NonlinearFEM\Codes\Assignment1\fortran_code_output_4.
 csv                                                                            
                                                                                
                    
 D:\MTechDesign\Sem4\ME759_NonlinearFEM\Codes\Assignment1\                      
                                                                                
                                                                                
                    
 D:\MTechDesign\Sem4\ME759_NonlinearFEM\Codes\Assignment1\fortran_code_output_4.
 csv                                                                            
                                                                                
                    
 D:\MTechDesign\Sem4\ME759_NonlinearFEM\Codes\Assignment1\                      
                                                                                
                                                                                
                    
 D:\MTechDesign\Sem4\ME759_NonlinearFEM\Codes\Assignment1\fortran_code_output_4.
 csv                                                                            
                                                                                
                    
 D:\MTechDesign\Sem4\ME759_NonlinearFEM\Codes\Assignment1\                      
                                                                                
                                                                                
                    
 D:\MTechDesign\Sem4\ME759_NonlinearFEM\Codes\Assignment1\fortran_code_output_4.
 csv                                                                            
                                                                                
                    
 D:\MTechDesign\Sem4\ME759_NonlinearFEM\Codes\Assignment1\                      
                                                                                
                                                                                
                    
 D:\MTechDesign\Sem4\ME759_NonlinearFEM\Codes\Assignment1\fortran_code_output_4.
 csv                                                                            
                                                                                
                    
 D:\MTechDesign\Sem4\ME759_NonlinearFEM\Codes\Assignment1\                      
                                                                                
                                                                                
                    
 D:\MTechDesign\Sem4\ME759_NonlinearFEM\Codes\Assignment1\fortran_code_output_4.
 csv                                                                            
                                                                                
                    
 D:\MTechDesign\Sem4\ME759_NonlinearFEM\Codes\Assignment1\                      
                                                                                
                                                                                
                    
 D:\MTechDesign\Sem4\ME759_NonlinearFEM\Codes\Assignment1\fortran_code_output_4.
 csv                                                                            
                                                                                
                    
 D:\MTechDesign\Sem4\ME759_NonlinearFEM\Codes\Assignment1\                      
                                                                                
                                                                                
                    
 D:\MTechDesign\Sem4\ME759_NonlinearFEM\Codes\Assignment1\fortran_code_output_4.
 csv                                                                            
                                                                                
                    
 D:\MTechDesign\Sem4\ME759_NonlinearFEM\Codes\Assignment1\                      
                                                                                
                                                                                
                    
 D:\MTechDesign\Sem4\ME759_NonlinearFEM\Codes\Assignment1\fortran_code_output_4.
 csv                                                                            
                                                                                
                    
 D:\MTechDesign\Sem4\ME759_NonlinearFEM\Codes\Assignment1\                      
                                                                                
                                                                                
                    
 D:\MTechDesign\Sem4\ME759_NonlinearFEM\Codes\Assignment1\fortran_code_output_4.
 csv                                                                            
                                                                                
                    
 D:\MTechDesign\Sem4\ME759_NonlinearFEM\Codes\Assignment1\                      
                                                                                
                                                                                
                    
 D:\MTechDesign\Sem4\ME759_NonlinearFEM\Codes\Assignment1\fortran_code_output_4.
 csv                                                                            
                                                                                
                    
 D:\MTechDesign\Sem4\ME759_NonlinearFEM\Codes\Assignment1\                      
                                                                                
                                                                                
                    
 D:\MTechDesign\Sem4\ME759_NonlinearFEM\Codes\Assignment1\fortran_code_output_4.
 csv                                                                            
                                                                                
                    
 D:\MTechDesign\Sem4\ME759_NonlinearFEM\Codes\Assignment1\                      
                                                                                
                                                                                
                    
 D:\MTechDesign\Sem4\ME759_NonlinearFEM\Codes\Assignment1\fortran_code_output_4.
 csv                                                                            
                                                                                
                    
 D:\MTechDesign\Sem4\ME759_NonlinearFEM\Codes\Assignment1\                      
                                                                                
                                                                                
                    
 D:\MTechDesign\Sem4\ME759_NonlinearFEM\Codes\Assignment1\fortran_code_output_4.
 csv                                                                            
                                                                                
                    
 D:\MTechDesign\Sem4\ME759_NonlinearFEM\Codes\Assignment1\                      
                                                                                
                                                                                
                    
 D:\MTechDesign\Sem4\ME759_NonlinearFEM\Codes\Assignment1\fortran_code_output_4.
 csv                                                                            
                                                                                
                    
 D:\MTechDesign\Sem4\ME759_NonlinearFEM\Codes\Assignment1\                      
                                                                                
                                                                                
                    
 D:\MTechDesign\Sem4\ME759_NonlinearFEM\Codes\Assignment1\fortran_code_output_4.
 csv                                                                            
                                                                                
                    
 D:\MTechDesign\Sem4\ME759_NonlinearFEM\Codes\Assignment1\                      
                                                                                
                                                                                
                    
 D:\MTechDesign\Sem4\ME759_NonlinearFEM\Codes\Assignment1\fortran_code_output_4.
 csv                                                                            
                                                                                
                    
 D:\MTechDesign\Sem4\ME759_NonlinearFEM\Codes\Assignment1\                      
                                                                                
[...]
         138   1         9.7304E-03 -4.1425E-03 -1.1606E-04   0.000      0.3209       1.069      2.0921E-04 -7.2573E-03
         139   1         8.4251E-03 -3.4326E-03 -7.1488E-04   0.000      0.2895      0.9376      2.7426E-02 -3.1430E-02
         140   1         8.6565E-03 -3.5733E-03 -1.0100E-03   0.000      0.2928      0.9587      1.7278E-02 -4.4388E-02
         141   1         8.9089E-03 -3.7354E-03 -1.1246E-03   0.000      0.2962      0.9815      5.8158E-03 -4.8977E-02
         142   1         9.1358E-03 -3.8811E-03 -1.0837E-03   0.000      0.2998       1.003     -3.1281E-03 -4.6624E-02
         143   1         9.3174E-03 -3.9901E-03 -9.4237E-04   0.000      0.3039       1.021     -7.7138E-03 -4.0096E-02
         144   1         9.4575E-03 -4.0612E-03 -7.5432E-04   0.000      0.3083       1.036     -8.0611E-03 -3.1967E-02
         145   1         9.5751E-03 -4.1062E-03 -5.5258E-04   0.000      0.3133       1.050     -5.5341E-03 -2.3799E-02
         146   1         9.6953E-03 -4.1432E-03 -3.4155E-04   0.000      0.3188       1.065     -2.0101E-03 -1.5858E-02
         147   1         9.8420E-03 -4.1905E-03 -9.3578E-05   0.000      0.3247       1.082      5.5864E-04 -7.0151E-03
         148   1         8.2998E-03 -3.3895E-03 -9.4089E-04   0.000      0.2847      0.9232      2.5953E-02 -4.2151E-02
         149   1         8.6349E-03 -3.5949E-03 -1.2789E-03   0.000      0.2891      0.9533      1.0398E-02 -5.7143E-02
         150   1         8.9745E-03 -3.8162E-03 -1.3448E-03   0.000      0.2934      0.9837     -5.7217E-03 -5.9288E-02
         151   1         9.2501E-03 -3.9952E-03 -1.2033E-03   0.000      0.2979       1.009     -1.6514E-02 -5.2123E-02
         152   1         9.4427E-03 -4.1082E-03 -9.5728E-04   0.000      0.3027       1.029     -1.9996E-02 -4.0746E-02
         153   1         9.5699E-03 -4.1621E-03 -6.9234E-04   0.000      0.3080       1.044     -1.7390E-02 -2.9194E-02
         154   1         9.6669E-03 -4.1809E-03 -4.5567E-04   0.000      0.3139       1.057     -1.1223E-02 -1.9592E-02
         155   1         9.7750E-03 -4.1950E-03 -2.5358E-04   0.000      0.3204       1.072     -4.2487E-03 -1.2259E-02
         156   1         9.9349E-03 -4.2340E-03 -5.2392E-05   0.000      0.3279       1.092      9.0749E-04 -5.8613E-03
         157   1         8.1589E-03 -3.3489E-03 -1.2840E-03   0.000      0.2787      0.9063      2.2780E-02 -5.8804E-02
         158   1         8.6571E-03 -3.6570E-03 -1.6572E-03   0.000      0.2848      0.9507     -1.4717E-03 -7.5411E-02
         159   1         9.1145E-03 -3.9611E-03 -1.6129E-03   0.000      0.2902      0.9913     -2.3987E-02 -7.1970E-02
         160   1         9.4364E-03 -4.1737E-03 -1.3024E-03   0.000      0.2958       1.022     -3.5741E-02 -5.6620E-02
         161   1         9.6188E-03 -4.2753E-03 -9.0595E-04   0.000      0.3016       1.042     -3.6116E-02 -3.8297E-02
         162   1         9.7071E-03 -4.2923E-03 -5.4725E-04   0.000      0.3077       1.054     -2.8670E-02 -2.2632E-02
         163   1         9.7597E-03 -4.2677E-03 -2.7996E-04   0.000      0.3141       1.065     -1.7783E-02 -1.1838E-02
         164   1         9.8348E-03 -4.2452E-03 -1.0644E-04   0.000      0.3213       1.078     -6.8502E-03 -5.9325E-03
         165   1         9.9903E-03 -4.2664E-03  1.0713E-05   0.000      0.3299       1.098      1.2276E-03 -3.4899E-03
         166   1         8.0170E-03 -3.3196E-03 -1.8151E-03   0.000      0.2713      0.8878      1.6392E-02 -8.5405E-02
         167   1         8.7731E-03 -3.7922E-03 -2.1783E-03   0.000      0.2796      0.9542     -2.2340E-02 -0.1011
         168   1         9.3755E-03 -4.2033E-03 -1.9069E-03   0.000      0.2869       1.008     -5.1631E-02 -8.5893E-02
         169   1         9.7165E-03 -4.4330E-03 -1.3276E-03   0.000      0.2941       1.041     -6.1168E-02 -5.7417E-02
         170   1         9.8449E-03 -4.4893E-03 -7.4122E-04   0.000      0.3014       1.059     -5.3993E-02 -3.0435E-02
         171   1         9.8586E-03 -4.4407E-03 -2.9259E-04   0.000      0.3081       1.066     -3.9521E-02 -1.1101E-02
         172   1         9.8414E-03 -4.3551E-03 -1.6025E-05   0.000      0.3144       1.071     -2.3511E-02 -1.5052E-04
         173   1         9.8612E-03 -4.2852E-03  1.0114E-04   0.000      0.3212       1.080     -9.0690E-03  3.2098E-03
         174   1         9.9872E-03 -4.2790E-03  9.4077E-05   0.000      0.3299       1.098      1.5079E-03  2.3641E-04
         175   1         7.9507E-03 -3.3347E-03 -2.6245E-03   0.000      0.2613      0.8712     -2.4627E-04 -0.1284
         176   1         9.0946E-03 -4.0646E-03 -2.8432E-03   0.000      0.2739      0.9714     -5.8562E-02 -0.1350
         177   1         9.8191E-03 -4.5883E-03 -2.1164E-03   0.000      0.2833       1.038     -9.3163E-02 -9.5206E-02
         178   1         1.0083E-02 -4.7693E-03 -1.1655E-03   0.000      0.2947       1.070     -8.7670E-02 -4.8330E-02
         179   1         1.0089E-02 -4.7183E-03 -4.0302E-04   0.000      0.3038       1.080     -6.7257E-02 -1.4353E-02
         180   1         9.9938E-03 -4.5742E-03  8.3537E-05   0.000      0.3103       1.079     -4.4927E-02  5.8503E-03
         181   1         9.8907E-03 -4.4192E-03  3.2254E-04   0.000      0.3152       1.076     -2.5375E-02  1.4749E-02
         182   1         9.8401E-03 -4.3011E-03  3.5017E-04   0.000      0.3203       1.077     -9.6276E-03  1.4297E-02
         183   1         9.9068E-03 -4.2622E-03  1.8716E-04   0.000      0.3274       1.089      1.7828E-03  5.0468E-03
         184   1         8.2126E-03 -3.4923E-03 -3.8725E-03   0.000      0.2523      0.8737     -3.2738E-02 -0.2008
         185   1         9.8235E-03 -4.6163E-03 -3.4352E-03   0.000      0.2621       1.010     -0.1366     -0.1662
         186   1         1.0414E-02 -5.1300E-03 -1.9472E-03   0.000      0.2857       1.086     -0.1334     -8.1137E-02
         187   1         1.0442E-02 -5.1001E-03 -6.6251E-04   0.000      0.3023       1.106     -9.8596E-02 -2.2151E-02
         188   1         1.0270E-02 -4.8780E-03  1.3455E-04   0.000      0.3115       1.102     -6.4231E-02  1.1012E-02
         189   1         1.0062E-02 -4.6323E-03  5.4541E-04   0.000      0.3156       1.090     -3.8245E-02  2.6373E-02
         190   1         9.8814E-03 -4.4250E-03  6.8029E-04   0.000      0.3173       1.078     -2.0089E-02  3.0263E-02
         191   1         9.7605E-03 -4.2765E-03  5.9159E-04   0.000      0.3187       1.070     -7.2643E-03  2.5139E-02
         192   1         9.7399E-03 -4.2086E-03  2.6763E-04   0.000      0.3220       1.071      2.0252E-03  1.0113E-02
         193   1         9.3773E-03 -4.1599E-03 -5.2679E-03   0.000      0.2137      0.9018     -0.1896     -0.3024
         194   1         1.0833E-02 -5.5643E-03 -3.2648E-03   0.000      0.2748       1.106     -0.1895     -0.1357
         195   1         1.0929E-02 -5.5961E-03 -1.0501E-03   0.000      0.3081       1.152     -0.1252     -3.0683E-02
         196   1         1.0635E-02 -5.2230E-03  1.9454E-04   0.000      0.3221       1.144     -6.9966E-02  2.0168E-02
         197   1         1.0301E-02 -4.8408E-03  7.7517E-04   0.000      0.3255       1.120     -3.5106E-02  3.9874E-02
         198   1         1.0020E-02 -4.5482E-03  9.7534E-04   0.000      0.3238       1.096     -1.6385E-02  4.4727E-02
         199   1         9.7975E-03 -4.3425E-03  9.5443E-04   0.000      0.3202       1.074     -7.0188E-03  4.1846E-02
         200   1         9.6217E-03 -4.2019E-03  7.4980E-04   0.000      0.3165       1.057     -1.9794E-03  3.2589E-02
         201   1         9.4964E-03 -4.1184E-03  3.0312E-04   0.000      0.3139       1.044      2.0291E-03  1.4132E-02

 MAXIMUM                2.3305E-02 -2.3299E-03  2.1884E-03   0.000      0.9271       2.581      0.5096      0.1227                
 ELEMENT                    28          32          23           1          28          28          28          23             

 MINIMUM                3.0171E-03 -6.8691E-03 -9.6354E-03   0.000      6.4544E-03  0.2412     -0.2662     -0.4663                
 ELEMENT                    31          28          29           1          31          31          30          29             
  
  
  
  
                                       N O D E   O U T P U T
  
  
  
  
   THE FOLLOWING TABLE IS PRINTED FOR ALL NODES
  
       NODE FOOT-  U1             U2           
            NOTE
  
         1      6.6924739E-03 -1.1366918E-02 
         2      0.0000000E+00 -1.1991405E-02 
         3      0.0000000E+00 -5.9756224E-03 
         4      1.2264611E-02 -7.0559768E-04 
         5      0.0000000E+00 -4.5088173E-03 
         6      1.2374764E-02 -1.5483488E-03 
         7      1.3542267E-02  0.0000000E+00 
         8      1.4334128E-02  0.0000000E+00 
         9      4.7771824E-02  0.0000000E+00 
        10      4.7761537E-02 -8.9005910E-04 
        11      4.7284163E-02 -9.3600845E-03 
        12      4.4004197E-03 -1.1686620E-02 
        13      2.1782203E-03 -1.1908991E-02 
        14      0.0000000E+00 -1.1234530E-02 
        15      0.0000000E+00 -1.0466463E-02 
        16      0.0000000E+00 -9.7097597E-03 
        17      0.0000000E+00 -8.9796523E-03 
        18      0.0000000E+00 -8.2893160E-03 
        19      0.0000000E+00 -7.6522638E-03 
        20      0.0000000E+00 -7.0804126E-03 
        21      0.0000000E+00 -6.5654346E-03 
        22      3.2986598E-03 -5.0563631E-03 
        23      7.6556499E-03 -2.8847681E-03 
        24      9.5980006E-03 -2.2984947E-03 
        25      8.2945082E-03 -3.8370626E-03 
        26      7.6428564E-03 -5.1827549E-03 
        27      7.3249116E-03 -6.3717267E-03 
        28      7.1688644E-03 -7.4570276E-03 
        29      7.0826388E-03 -8.4813017E-03 
        30      7.0085433E-03 -9.4686276E-03 
        31      6.8976289E-03 -1.0429379E-02 
        32      5.0568568E-03 -4.2806552E-03 
        33      9.4013057E-03 -3.1428803E-03 
        34      1.5089670E-02  0.0000000E+00 
        35      1.6404924E-02  0.0000000E+00 
        36      1.8026699E-02  0.0000000E+00 
        37      1.9833976E-02  0.0000000E+00 
        38      2.1757639E-02  0.0000000E+00 
        39      2.3760186E-02  0.0000000E+00 
        40      2.5819176E-02  0.0000000E+00 
        41      2.7920628E-02  0.0000000E+00 
        42      3.0055399E-02  0.0000000E+00 
        43      3.2217167E-02  0.0000000E+00 
        44      3.4401233E-02  0.0000000E+00 
        45      3.6603807E-02  0.0000000E+00 
        46      3.8821534E-02  0.0000000E+00 
        47      4.1051144E-02  0.0000000E+00 
        48      4.3289106E-02  0.0000000E+00 
        49      4.5531191E-02  0.0000000E+00 
        50      4.5498193E-02 -9.0548332E-04 
        51      4.3235535E-02 -9.1260985E-04 
        52      4.0977720E-02 -9.1396128E-04 
        53      3.8728353E-02 -9.1114960E-04 
        54      3.6490666E-02 -9.0522577E-04 
        55      3.4267721E-02 -8.9688684E-04 
        56      3.2062666E-02 -8.8657887E-04 
        57      2.9878971E-02 -8.7451063E-04 
        58      2.7720817E-02 -8.6058453E-04 
        59      2.5593641E-02 -8.4424122E-04 
        60      2.3505018E-02 -8.2420469E-04 
        61      2.1466024E-02 -7.9812808E-04 
        62      1.9493256E-02 -7.6209049E-04 
        63      1.7613596E-02 -7.1177405E-04 
        64      1.5846714E-02 -6.5291062E-04 
        65      1.4155545E-02 -6.3426051E-04 
        66      4.7731786E-02 -1.7848638E-03 
        67      4.7685193E-02 -2.6886178E-03 
        68      4.7625877E-02 -3.6046802E-03 
        69      4.7559071E-02 -4.5351640E-03 
        70      4.7490580E-02 -5.4806085E-03 
        71      4.7426040E-02 -6.4397344E-03 
        72      4.7369889E-02 -7.4093263E-03 
        73      4.7323782E-02 -8.3844594E-03 
        74      4.5009795E-02 -9.3989616E-03 
        75      4.2735003E-02 -9.4312808E-03 
        76      4.0454712E-02 -9.4529617E-03 
        77      3.8163413E-02 -9.4644959E-03 
        78      3.5856241E-02 -9.4688336E-03 
        79      3.3528917E-02 -9.4704327E-03 
        80      3.1177614E-02 -9.4749994E-03 
        81      2.8799013E-02 -9.4895265E-03 
        82      2.6390614E-02 -9.5224092E-03 
        83      2.3951384E-02 -9.5834428E-03 
        84      2.1482755E-02 -9.6834598E-03 
        85      1.8989898E-02 -9.8332946E-03 
        86      1.6483044E-02 -1.0041738E-02 
        87      1.3978214E-02 -1.0312214E-02 
        88      1.1496459E-02 -1.0638648E-02 
        89      9.0610486E-03 -1.1001773E-02 
        90      4.5600151E-03 -1.0812938E-02 
        91      2.2650770E-03 -1.1099395E-02 
        92      4.6391728E-03 -9.9227963E-03 
        93      2.3060907E-03 -1.0277019E-02 
        94      4.6813373E-03 -9.0256062E-03 
        95      2.3240811E-03 -9.4622691E-03 
        96      4.7180513E-03 -8.1225515E-03 
        97      2.3332688E-03 -8.6675527E-03 
        98      4.7829204E-03 -7.2029191E-03 
        99      2.3462098E-03 -7.9000631E-03 
       100      4.9246983E-03 -6.2403438E-03 
       101      2.3723941E-03 -7.1642505E-03 
       102      5.2384941E-03 -5.1903515E-03 
       103      2.4410423E-03 -6.4609129E-03 
       104      5.9824373E-03 -4.0161896E-03 
       105      2.6600190E-03 -5.7701197E-03 
       106      4.5455701E-02 -1.8142785E-03 
       107      4.5403085E-02 -2.7294012E-03 
       108      4.5340864E-02 -3.6533334E-03 
       109      4.5272454E-02 -4.5877081E-03 
       110      4.5203177E-02 -5.5331101E-03 
       111      4.5138881E-02 -6.4889967E-03 
       112      4.5084524E-02 -7.4537601E-03 
       113      4.5042423E-02 -8.4249126E-03 
       114      4.3180400E-02 -1.8278580E-03 
       115      4.3121160E-02 -2.7483944E-03 
       116      4.3055511E-02 -3.6764586E-03 
       117      4.2985121E-02 -4.6136177E-03 
       118      4.2914655E-02 -5.5606475E-03 
       119      4.2849991E-02 -6.5174963E-03 
       120      4.2796620E-02 -7.4832459E-03 
       121      4.2758102E-02 -8.4558729E-03 
       122      4.0909435E-02 -1.8303877E-03 
       123      4.0842231E-02 -2.7521243E-03 
       124      4.0771401E-02 -3.6815509E-03 
       125      4.0697086E-02 -4.6203468E-03 
       126      4.0623412E-02 -5.5694180E-03 
       127      4.0556448E-02 -6.5288563E-03 
       128      4.0502546E-02 -7.4977924E-03 
       129      4.0467191E-02 -8.4739822E-03 
       130      3.8645833E-02 -1.8249594E-03 
       131      3.8568610E-02 -2.7448419E-03 
       132      3.8489931E-02 -3.6735388E-03 
       133      3.8408744E-02 -4.6128876E-03 
       134      3.8328893E-02 -5.5638058E-03 
       135      3.8256892E-02 -6.5262788E-03 
       136      3.8200260E-02 -7.4992250E-03 
       137      3.8166581E-02 -8.4801344E-03 
       138      3.6392294E-02 -1.8136288E-03 
       139      3.6302299E-02 -2.7294722E-03 
       140      3.6212329E-02 -3.6559890E-03 
       141      3.6120546E-02 -4.5951455E-03 
       142      3.6030841E-02 -5.5477265E-03 
       143      3.5950411E-02 -6.5134440E-03 
       144      3.5888028E-02 -7.4909268E-03 
       145      3.5853227E-02 -8.4775094E-03 
       146      3.4151329E-02 -1.7978305E-03 
       147      3.4045042E-02 -2.7082217E-03 
       148      3.3939516E-02 -3.6318617E-03 
       149      3.3832681E-02 -4.5707411E-03 
       150      3.3728840E-02 -5.5253058E-03 
       151      3.3635997E-02 -6.4948043E-03 
       152      3.3564071E-02 -7.4775163E-03 
       153      3.3524227E-02 -8.4707318E-03 
       154      3.1925331E-02 -1.7785956E-03 
       155      3.1798209E-02 -2.6829155E-03 
       156      3.1671852E-02 -3.6039490E-03 
       157      3.1544717E-02 -4.5434819E-03 
       158      3.1421916E-02 -5.5012679E-03 
       159      3.1312265E-02 -6.4757783E-03 
       160      3.1226501E-02 -7.4648053E-03 
       161      3.1176886E-02 -8.4656815E-03 
       162      2.9716657E-02 -1.7566120E-03 
       163      2.9562650E-02 -2.6551473E-03 
       164      2.9408815E-02 -3.5751206E-03 
       165      2.9255194E-02 -4.5176728E-03 
       166      2.9108195E-02 -5.4812478E-03 
       167      2.8977274E-02 -6.4630044E-03 
       168      2.8873343E-02 -7.4599703E-03 
       169      2.8808860E-02 -8.4695993E-03 
       170      2.7527690E-02 -1.7321548E-03 
       171      2.7338432E-02 -2.6263051E-03 
       172      2.7148488E-02 -3.5484959E-03 
       173      2.6961106E-02 -4.4984029E-03 
       174      2.6784511E-02 -5.4721221E-03 
       175      2.6628360E-02 -6.4646511E-03 
       176      2.6502579E-02 -7.4718241E-03 
       177      2.6418381E-02 -8.4913045E-03 
       178      2.5360890E-02 -1.7049165E-03 
       179      2.5124358E-02 -2.5975646E-03 
       180      2.4886841E-02 -3.5276614E-03 
       181      2.4657178E-02 -4.4919125E-03 
       182      2.4445921E-02 -5.4823933E-03 
       183      2.4261931E-02 -6.4907250E-03 
       184      2.4112273E-02 -7.5110185E-03 
       185      2.4004670E-02 -8.5413024E-03 
       186      2.3218761E-02 -1.6737905E-03 
       187      2.2917106E-02 -2.5700107E-03 
       188      2.2616562E-02 -3.5171737E-03 
       189      2.2334944E-02 -4.5062332E-03 
       190      2.2085211E-02 -5.5226810E-03 
       191      2.1873410E-02 -6.5532624E-03 
       192      2.1700827E-02 -7.5899662E-03 
       193      2.1568480E-02 -8.6315464E-03 
       194      2.1103492E-02 -1.6367359E-03 
       195      2.0709552E-02 -2.5452929E-03 
       196      2.0325258E-02 -3.5237848E-03 
       197      1.9981665E-02 -4.5524090E-03 
       198      1.9692679E-02 -5.6063416E-03 
       199      1.9457515E-02 -6.6662082E-03 
       200      1.9267455E-02 -7.7221436E-03 
       201      1.9112842E-02 -8.7744780E-03 
       202      1.9015606E-02 -1.5913237E-03 
       203      1.8487481E-02 -2.5276284E-03 
       204      1.7992815E-02 -3.5594366E-03 
       205      1.7579608E-02 -4.6466735E-03 
       206      1.7256807E-02 -5.7501460E-03 
       207      1.7009398E-02 -6.8445159E-03 
       208      1.6813120E-02 -7.9202900E-03 
       209      1.6643791E-02 -8.9809258E-03 
       210      1.6951895E-02 -1.5406354E-03 
       211      1.6225282E-02 -2.5364087E-03 
       212      1.5590974E-02 -3.6543450E-03 
       213      1.5110283E-02 -4.8211421E-03 
       214      1.4770729E-02 -5.9799397E-03 
       215      1.4530202E-02 -7.1063988E-03 
       216      1.4344370E-02 -8.1965316E-03 
       217      1.4172631E-02 -9.2589732E-03 
       218      1.4866515E-02 -1.5246348E-03 
       219      1.3856193E-02 -2.6395320E-03 
       220      1.3077008E-02 -3.8895176E-03 
       221      1.2564669E-02 -5.1385569E-03 
       222      1.2242593E-02 -6.3360238E-03 
       223      1.2034354E-02 -7.4738061E-03 
       224      1.1876659E-02 -8.5602774E-03 
       225      1.1714939E-02 -9.6088096E-03 
       226      1.2571440E-02 -1.6434073E-03 
       227      1.1229199E-02 -3.0151467E-03 
       228      1.0417547E-02 -4.3896550E-03 
       229      9.9557052E-03 -5.6674838E-03 
       230      9.6990748E-03 -6.8473992E-03 
       231      9.5463257E-03 -7.9517341E-03 
       232      9.4278788E-03 -9.0018925E-03 
       233      9.2861640E-03 -1.0013652E-02 

 MAXIMUM         4.7772E-02   0.000    
 AT NODE                 9           7

 MINIMUM          0.000     -1.1991E-02
 AT NODE                 2           2


          THE ANALYSIS HAS BEEN COMPLETED



                              ANALYSIS COMPLETE



     JOB TIME SUMMARY
       USER TIME (SEC)      =  0.10000    
       SYSTEM TIME (SEC)    =   0.0000    
       TOTAL CPU TIME (SEC) =  0.10000    
       WALLCLOCK TIME (SEC) =          0
