1

   Abaqus 3DEXPERIENCE R2018x                                  Date 23-Mar-2022   Time 15:31:09
   For use by Supplied by Team-SolidSQUAD under license from Dassault Systemes or its subsidiary.

                                                                                 
                                                                                 
 STEP    1     INCREMENT     1     STEP TIME    0.00    


                        S T E P       1     S T A T I C   A N A L Y S I S


                                                                                          

          FIXED TIME INCREMENTS
          TIME INCREMENT IS                                    0.200    
          TIME PERIOD IS                                        36.0    

     LINEAR EQUATION SOLVER TYPE         DIRECT SPARSE

 CONVERGENCE TOLERANCE PARAMETERS FOR FORCE    
     CRITERION FOR RESIDUAL FORCE     FOR A NONLINEAR PROBLEM          5.000E-03
     CRITERION FOR DISP.    CORRECTION IN A NONLINEAR PROBLEM          1.000E-02
     INITIAL VALUE OF TIME AVERAGE FORCE                               1.000E-02
     AVERAGE FORCE     IS TIME AVERAGE FORCE    
     ALTERNATE CRIT. FOR RESIDUAL FORCE     FOR A NONLINEAR PROBLEM    2.000E-02
     CRITERION FOR ZERO FORCE     RELATIVE TO TIME AVRG. FORCE         1.000E-05
     CRITERION FOR RESIDUAL FORCE     WHEN THERE IS ZERO FLUX          1.000E-05
     CRITERION FOR DISP.    CORRECTION WHEN THERE IS ZERO FLUX         1.000E-03
     CRITERION FOR RESIDUAL FORCE     FOR A LINEAR INCREMENT           1.000E-08
     FIELD CONVERSION RATIO                                             1.00    
     CRITERION FOR ZERO FORCE     REL. TO TIME AVRG. MAX. FORCE        1.000E-05
     CRITERION FOR ZERO DISP.    RELATIVE TO CHARACTERISTIC LENGTH     1.000E-08

     VOLUMETRIC STRAIN COMPATIBILITY TOLERANCE FOR HYBRID SOLIDS       1.000E-05
     AXIAL STRAIN COMPATIBILITY TOLERANCE FOR HYBRID BEAMS             1.000E-05
     TRANS. SHEAR STRAIN COMPATIBILITY TOLERANCE FOR HYBRID BEAMS      1.000E-05
     SOFT CONTACT CONSTRAINT COMPATIBILITY TOLERANCE FOR P>P0          5.000E-03
     SOFT CONTACT CONSTRAINT COMPATIBILITY TOLERANCE FOR P=0.0         0.100    
     CONTACT FORCE ERROR TOLERANCE FOR CONVERT SDI=YES                 1.00    
     DISPLACEMENT COMPATIBILITY TOLERANCE FOR DCOUP ELEMENTS           1.000E-05
     ROTATION COMPATIBILITY TOLERANCE FOR DCOUP ELEMENTS               1.000E-05

 EQUILIBRIUM WILL BE CHECKED FOR SEVERE DISCONTINUITY ITERATIONS

 ITERATION CONTROL PARAMETERS:
     FIRST EQUILIBRIUM ITERATION FOR CONSECUTIVE DIVERGENCE CHECK              4
     EQUILIBRIUM ITERATION AFTER WHICH ALTERNATE RESIDUAL IS USED              9
     MAXIMUM EQUILIBRIUM ITERATIONS ALLOWED                                   16
     MAXIMUM ITERATIONS FOR SEVERE DISCONTINUITIES                            12
     GLOBAL STABILIZATION CONTROL IS NOT USED

          PRINT OF INCREMENT NUMBER, TIME, ETC., EVERY  100  INCREMENTS

     THE MAXIMUM NUMBER OF INCREMENTS IN THIS STEP IS                     180

          LARGE DISPLACEMENT THEORY WILL BE USED

     LINEAR EXTRAPOLATION WILL BE USED

     CHARACTERISTIC ELEMENT LENGTH      1.00    

     DETAILS REGARDING ACTUAL SOLUTION WAVEFRONT REQUESTED

     DETAILED OUTPUT OF DIAGNOSTICS TO DATABASE REQUESTED

     PRINT OF INCREMENT NUMBER, TIME, ETC., TO THE MESSAGE FILE EVERY   100  INCREMENTS

     THE STATUS FILE WILL MONITOR NODE           3 DOF  1
     THE MESSAGE FILE WILL MONITOR NODE          3 DOF  1 EVERY     1 INCREMENTS

     COLLECTING MODEL CONSTRAINT INFORMATION FOR OVERCONSTRAINT CHECKS

     COLLECTING STEP CONSTRAINT INFORMATION FOR OVERCONSTRAINT CHECKS

  NUMBER OF EQUATIONS =         4     NUMBER OF RHS =    1
  NUMBER OF FLOATING PT. OPERATIONS =  3.00E+01

     CHECK POINT   START OF SOLVER    

     CHECK POINT  END OF SOLVER       

       ELAPSED USER TIME (SEC)      =   0.0000    
       ELAPSED SYSTEM TIME (SEC)    =   0.0000    
       ELAPSED TOTAL CPU TIME (SEC) =   0.0000    
       ELAPSED WALLCLOCK TIME (SEC) =          0

 CURRENT VALUE OF MONITOR NODE          3 D.O.F.  1 IS   1.000E-03

  NUMBER OF EQUATIONS =         6     NUMBER OF RHS =    1
  NUMBER OF FLOATING PT. OPERATIONS =  9.10E+01

     CHECK POINT   START OF SOLVER    

     CHECK POINT  END OF SOLVER       

       ELAPSED USER TIME (SEC)      =   0.0000    
       ELAPSED SYSTEM TIME (SEC)    =   0.0000    
       ELAPSED TOTAL CPU TIME (SEC) =   0.0000    
       ELAPSED WALLCLOCK TIME (SEC) =          0

 CURRENT VALUE OF MONITOR NODE          3 D.O.F.  1 IS   2.000E-03

  NUMBER OF EQUATIONS =         6     NUMBER OF RHS =    1
  NUMBER OF FLOATING PT. OPERATIONS =  9.10E+01

     CHECK POINT   START OF SOLVER    

     CHECK POINT  END OF SOLVER       

       ELAPSED USER TIME (SEC)      =   0.0000    
       ELAPSED SYSTEM TIME (SEC)    =   0.0000    
       ELAPSED TOTAL CPU TIME (SEC) =   0.0000    
       ELAPSED WALLCLOCK TIME (SEC) =          0

 CURRENT VALUE OF MONITOR NODE          3 D.O.F.  1 IS   3.000E-03

  NUMBER OF EQUATIONS =         6     NUMBER OF RHS =    1
  NUMBER OF FLOATING PT. OPERATIONS =  9.10E+01

     CHECK POINT   START OF SOLVER    

     CHECK POINT  END OF SOLVER       

       ELAPSED USER TIME (SEC)      =   0.0000    
       ELAPSED SYSTEM TIME (SEC)    =   0.0000    
       ELAPSED TOTAL CPU TIME (SEC) =   0.0000    
       ELAPSED WALLCLOCK TIME (SEC) =          0

 CURRENT VALUE OF MONITOR NODE          3 D.O.F.  1 IS   4.000E-03

  NUMBER OF EQUATIONS =         6     NUMBER OF RHS =    1
  NUMBER OF FLOATING PT. OPERATIONS =  9.10E+01

     CHECK POINT   START OF SOLVER    

     CHECK POINT  END OF SOLVER       

       ELAPSED USER TIME (SEC)      =   0.0000    
       ELAPSED SYSTEM TIME (SEC)    =   0.0000    
       ELAPSED TOTAL CPU TIME (SEC) =   0.0000    
       ELAPSED WALLCLOCK TIME (SEC) =          0

 CURRENT VALUE OF MONITOR NODE          3 D.O.F.  1 IS   5.000E-03

  NUMBER OF EQUATIONS =         6     NUMBER OF RHS =    1
  NUMBER OF FLOATING PT. OPERATIONS =  9.10E+01

     CHECK POINT   START OF SOLVER    

     CHECK POINT  END OF SOLVER       

       ELAPSED USER TIME (SEC)      =   0.0000    
       ELAPSED SYSTEM TIME (SEC)    =   0.0000    
       ELAPSED TOTAL CPU TIME (SEC) =   0.0000    
       ELAPSED WALLCLOCK TIME (SEC) =          0

 CURRENT VALUE OF MONITOR NODE          3 D.O.F.  1 IS   6.000E-03

  NUMBER OF EQUATIONS =         6     NUMBER OF RHS =    1
  NUMBER OF FLOATING PT. OPERATIONS =  9.10E+01

     CHECK POINT   START OF SOLVER    

     CHECK POINT  END OF SOLVER       

       ELAPSED USER TIME (SEC)      =   0.0000    
       ELAPSED SYSTEM TIME (SEC)    =   0.0000    
       ELAPSED TOTAL CPU TIME (SEC) =   0.0000    
       ELAPSED WALLCLOCK TIME (SEC) =          0

 CURRENT VALUE OF MONITOR NODE          3 D.O.F.  1 IS   7.000E-03

  NUMBER OF EQUATIONS =         6     NUMBER OF RHS =    1
  NUMBER OF FLOATING PT. OPERATIONS =  9.10E+01

     CHECK POINT   START OF SOLVER    

     CHECK POINT  END OF SOLVER       

       ELAPSED USER TIME (SEC)      =   0.0000    
       ELAPSED SYSTEM TIME (SEC)    =   0.0000    
       ELAPSED TOTAL CPU TIME (SEC) =   0.0000    
       ELAPSED WALLCLOCK TIME (SEC) =          0

 CURRENT VALUE OF MONITOR NODE          3 D.O.F.  1 IS   8.000E-03

  NUMBER OF EQUATIONS =         6     NUMBER OF RHS =    1
  NUMBER OF FLOATING PT. OPERATIONS =  9.10E+01

     CHECK POINT   START OF SOLVER    

     CHECK POINT  END OF SOLVER       

       ELAPSED USER TIME (SEC)      =   0.0000    
       ELAPSED SYSTEM TIME (SEC)    =   0.0000    
       ELAPSED TOTAL CPU TIME (SEC) =   0.0000    
       ELAPSED WALLCLOCK TIME (SEC) =          0

 CURRENT VALUE OF MONITOR NODE          3 D.O.F.  1 IS   9.000E-03

  NUMBER OF EQUATIONS =         6     NUMBER OF RHS =    1
  NUMBER OF FLOATING PT. OPERATIONS =  9.10E+01

     CHECK POINT   START OF SOLVER    

     CHECK POINT  END OF SOLVER       

       ELAPSED USER TIME (SEC)      =   0.0000    
       ELAPSED SYSTEM TIME (SEC)    =   0.0000    
       ELAPSED TOTAL CPU TIME (SEC) =   0.0000    
       ELAPSED WALLCLOCK TIME (SEC) =          0

 CURRENT VALUE OF MONITOR NODE          3 D.O.F.  1 IS   1.000E-02

  NUMBER OF EQUATIONS =         6     NUMBER OF RHS =    1
  NUMBER OF FLOATING PT. OPERATIONS =  9.10E+01

     CHECK POINT   START OF SOLVER    

     CHECK POINT  END OF SOLVER       

       ELAPSED USER TIME (SEC)      =   0.0000    
       ELAPSED SYSTEM TIME (SEC)    =   0.0000    
       ELAPSED TOTAL CPU TIME (SEC) =   0.0000    
       ELAPSED WALLCLOCK TIME (SEC) =          0

 CURRENT VALUE OF MONITOR NODE          3 D.O.F.  1 IS   1.100E-02

  NUMBER OF EQUATIONS =         6     NUMBER OF RHS =    1
  NUMBER OF FLOATING PT. OPERATIONS =  9.10E+01

     CHECK POINT   START OF SOLVER    

     CHECK POINT  END OF SOLVER       

       ELAPSED USER TIME (SEC)      =   0.0000    
       ELAPSED SYSTEM TIME (SEC)    =   0.0000    
       ELAPSED TOTAL CPU TIME (SEC) =   0.0000    
       ELAPSED WALLCLOCK TIME (SEC) =          0

 CURRENT VALUE OF MONITOR NODE          3 D.O.F.  1 IS   1.200E-02

  NUMBER OF EQUATIONS =         6     NUMBER OF RHS =    1
  NUMBER OF FLOATING PT. OPERATIONS =  9.10E+01

     CHECK POINT   START OF SOLVER    

     CHECK POINT  END OF SOLVER       

       ELAPSED USER TIME (SEC)      =   0.0000    
       ELAPSED SYSTEM TIME (SEC)    =   0.0000    
       ELAPSED TOTAL CPU TIME (SEC) =   0.0000    
       ELAPSED WALLCLOCK TIME (SEC) =          0

 CURRENT VALUE OF MONITOR NODE          3 D.O.F.  1 IS   1.300E-02

  NUMBER OF EQUATIONS =         6     NUMBER OF RHS =    1
  NUMBER OF FLOATING PT. OPERATIONS =  9.10E+01

     CHECK POINT   START OF SOLVER    

     CHECK POINT  END OF SOLVER       

       ELAPSED USER TIME (SEC)      =   0.0000    
       ELAPSED SYSTEM TIME (SEC)    =   0.0000    
       ELAPSED TOTAL CPU TIME (SEC) =   0.0000    
       ELAPSED WALLCLOCK TIME (SEC) =          0

 CURRENT VALUE OF MONITOR NODE          3 D.O.F.  1 IS   1.400E-02

  NUMBER OF EQUATIONS =         6     NUMBER OF RHS =    1
  NUMBER OF FLOATING PT. OPERATIONS =  9.10E+01

     CHECK POINT   START OF SOLVER    

     CHECK POINT  END OF SOLVER       

       ELAPSED USER TIME (SEC)      =   0.0000    
       ELAPSED SYSTEM TIME (SEC)    =   0.0000    
       ELAPSED TOTAL CPU TIME (SEC) =   0.0000    
       ELAPSED WALLCLOCK TIME (SEC) =          0

 CURRENT VALUE OF MONITOR NODE          3 D.O.F.  1 IS   1.500E-02

  NUMBER OF EQUATIONS =         6     NUMBER OF RHS =    1
  NUMBER OF FLOATING PT. OPERATIONS =  9.10E+01

     CHECK POINT   START OF SOLVER    

     CHECK POINT  END OF SOLVER       

       ELAPSED USER TIME (SEC)      =  0.10000    
       ELAPSED SYSTEM TIME (SEC)    =   0.0000    
       ELAPSED TOTAL CPU TIME (SEC) =  0.10000    
       ELAPSED WALLCLOCK TIME (SEC) =          0

 CURRENT VALUE OF MONITOR NODE          3 D.O.F.  1 IS   1.600E-02

  NUMBER OF EQUATIONS =         6     NUMBER OF RHS =    1
  NUMBER OF FLOATING PT. OPERATIONS =  9.10E+01

     CHECK POINT   START OF SOLVER    

     CHECK POINT  END OF SOLVER       

       ELAPSED USER TIME (SEC)      =   0.0000    
       ELAPSED SYSTEM TIME (SEC)    =   0.0000    
       ELAPSED TOTAL CPU TIME (SEC) =   0.0000    
       ELAPSED WALLCLOCK TIME (SEC) =          0

 CURRENT VALUE OF MONITOR NODE          3 D.O.F.  1 IS   1.700E-02

  NUMBER OF EQUATIONS =         6     NUMBER OF RHS =    1
  NUMBER OF FLOATING PT. OPERATIONS =  9.10E+01

     CHECK POINT   START OF SOLVER    

     CHECK POINT  END OF SOLVER       

       ELAPSED USER TIME (SEC)      =   0.0000    
       ELAPSED SYSTEM TIME (SEC)    =   0.0000    
       ELAPSED TOTAL CPU TIME (SEC) =   0.0000    
       ELAPSED WALLCLOCK TIME (SEC) =          0

 CURRENT VALUE OF MONITOR NODE          3 D.O.F.  1 IS   1.800E-02

  NUMBER OF EQUATIONS =         6     NUMBER OF RHS =    1
  NUMBER OF FLOATING PT. OPERATIONS =  9.10E+01

     CHECK POINT   START OF SOLVER    

     CHECK POINT  END OF SOLVER       

       ELAPSED USER TIME (SEC)      =   0.0000    
       ELAPSED SYSTEM TIME (SEC)    =   0.0000    
       ELAPSED TOTAL CPU TIME (SEC) =   0.0000    
       ELAPSED WALLCLOCK TIME (SEC) =          0

 CURRENT VALUE OF MONITOR NODE          3 D.O.F.  1 IS   1.900E-02

  NUMBER OF EQUATIONS =         6     NUMBER OF RHS =    1
  NUMBER OF FLOATING PT. OPERATIONS =  9.10E+01

     CHECK POINT   START OF SOLVER    

     CHECK POINT  END OF SOLVER       

       ELAPSED USER TIME (SEC)      =   0.0000    
       ELAPSED SYSTEM TIME (SEC)    =   0.0000    
       ELAPSED TOTAL CPU TIME (SEC) =   0.0000    
       ELAPSED WALLCLOCK TIME (SEC) =          0

 CURRENT VALUE OF MONITOR NODE          3 D.O.F.  1 IS   2.000E-02

  NUMBER OF EQUATIONS =         6     NUMBER OF RHS =    1
  NUMBER OF FLOATING PT. OPERATIONS =  9.10E+01

     CHECK POINT   START OF SOLVER    

     CHECK POINT  END OF SOLVER       

       ELAPSED USER TIME (SEC)      =   0.0000    
       ELAPSED SYSTEM TIME (SEC)    =   0.0000    
       ELAPSED TOTAL CPU TIME (SEC) =   0.0000    
       ELAPSED WALLCLOCK TIME (SEC) =          0

 CURRENT VALUE OF MONITOR NODE          3 D.O.F.  1 IS   2.100E-02

  NUMBER OF EQUATIONS =         6     NUMBER OF RHS =    1
  NUMBER OF FLOATING PT. OPERATIONS =  9.10E+01

     CHECK POINT   START OF SOLVER    

     CHECK POINT  END OF SOLVER       

       ELAPSED USER TIME (SEC)      =   0.0000    
       ELAPSED SYSTEM TIME (SEC)    =   0.0000    
       ELAPSED TOTAL CPU TIME (SEC) =   0.0000    
       ELAPSED WALLCLOCK TIME (SEC) =          0

 CURRENT VALUE OF MONITOR NODE          3 D.O.F.  1 IS   2.200E-02

  NUMBER OF EQUATIONS =         6     NUMBER OF RHS =    1
  NUMBER OF FLOATING PT. OPERATIONS =  9.10E+01

     CHECK POINT   START OF SOLVER    

     CHECK POINT  END OF SOLVER       

       ELAPSED USER TIME (SEC)      =   0.0000    
       ELAPSED SYSTEM TIME (SEC)    =   0.0000    
       ELAPSED TOTAL CPU TIME (SEC) =   0.0000    
       ELAPSED WALLCLOCK TIME (SEC) =          0

 CURRENT VALUE OF MONITOR NODE          3 D.O.F.  1 IS   2.300E-02

  NUMBER OF EQUATIONS =         6     NUMBER OF RHS =    1
  NUMBER OF FLOATING PT. OPERATIONS =  9.10E+01

     CHECK POINT   START OF SOLVER    

     CHECK POINT  END OF SOLVER       

       ELAPSED USER TIME (SEC)      =   0.0000    
       ELAPSED SYSTEM TIME (SEC)    =   0.0000    
       ELAPSED TOTAL CPU TIME (SEC) =   0.0000    
       ELAPSED WALLCLOCK TIME (SEC) =          0

 CURRENT VALUE OF MONITOR NODE          3 D.O.F.  1 IS   2.400E-02

  NUMBER OF EQUATIONS =         6     NUMBER OF RHS =    1
  NUMBER OF FLOATING PT. OPERATIONS =  9.10E+01

     CHECK POINT   START OF SOLVER    

     CHECK POINT  END OF SOLVER       

       ELAPSED USER TIME (SEC)      =   0.0000    
       ELAPSED SYSTEM TIME (SEC)    =   0.0000    
       ELAPSED TOTAL CPU TIME (SEC) =   0.0000    
       ELAPSED WALLCLOCK TIME (SEC) =          1

 CURRENT VALUE OF MONITOR NODE          3 D.O.F.  1 IS   2.500E-02

  NUMBER OF EQUATIONS =         6     NUMBER OF RHS =    1
  NUMBER OF FLOATING PT. OPERATIONS =  9.10E+01

     CHECK POINT   START OF SOLVER    

     CHECK POINT  END OF SOLVER       

       ELAPSED USER TIME (SEC)      =   0.0000    
       ELAPSED SYSTEM TIME (SEC)    =   0.0000    
       ELAPSED TOTAL CPU TIME (SEC) =   0.0000    
       ELAPSED WALLCLOCK TIME (SEC) =          0

 CURRENT VALUE OF MONITOR NODE          3 D.O.F.  1 IS   2.600E-02

  NUMBER OF EQUATIONS =         6     NUMBER OF RHS =    1
  NUMBER OF FLOATING PT. OPERATIONS =  9.10E+01

     CHECK POINT   START OF SOLVER    

     CHECK POINT  END OF SOLVER       

       ELAPSED USER TIME (SEC)      =   0.0000    
       ELAPSED SYSTEM TIME (SEC)    =   0.0000    
       ELAPSED TOTAL CPU TIME (SEC) =   0.0000    
       ELAPSED WALLCLOCK TIME (SEC) =          0

 CURRENT VALUE OF MONITOR NODE          3 D.O.F.  1 IS   2.700E-02

  NUMBER OF EQUATIONS =         6     NUMBER OF RHS =    1
  NUMBER OF FLOATING PT. OPERATIONS =  9.10E+01

     CHECK POINT   START OF SOLVER    

     CHECK POINT  END OF SOLVER       

       ELAPSED USER TIME (SEC)      =   0.0000    
       ELAPSED SYSTEM TIME (SEC)    =   0.0000    
       ELAPSED TOTAL CPU TIME (SEC) =   0.0000    
       ELAPSED WALLCLOCK TIME (SEC) =          0

 CURRENT VALUE OF MONITOR NODE          3 D.O.F.  1 IS   2.800E-02

  NUMBER OF EQUATIONS =         6     NUMBER OF RHS =    1
  NUMBER OF FLOATING PT. OPERATIONS =  9.10E+01

     CHECK POINT   START OF SOLVER    

     CHECK POINT  END OF SOLVER       

       ELAPSED USER TIME (SEC)      =   0.0000    
       ELAPSED SYSTEM TIME (SEC)    =   0.0000    
       ELAPSED TOTAL CPU TIME (SEC) =   0.0000    
       ELAPSED WALLCLOCK TIME (SEC) =          0

 CURRENT VALUE OF MONITOR NODE          3 D.O.F.  1 IS   2.900E-02

  NUMBER OF EQUATIONS =         6     NUMBER OF RHS =    1
  NUMBER OF FLOATING PT. OPERATIONS =  9.10E+01

     CHECK POINT   START OF SOLVER    

     CHECK POINT  END OF SOLVER       

       ELAPSED USER TIME (SEC)      =   0.0000    
       ELAPSED SYSTEM TIME (SEC)    =   0.0000    
       ELAPSED TOTAL CPU TIME (SEC) =   0.0000    
       ELAPSED WALLCLOCK TIME (SEC) =          0

 CURRENT VALUE OF MONITOR NODE          3 D.O.F.  1 IS   3.000E-02

  NUMBER OF EQUATIONS =         6     NUMBER OF RHS =    1
  NUMBER OF FLOATING PT. OPERATIONS =  9.10E+01

     CHECK POINT   START OF SOLVER    

     CHECK POINT  END OF SOLVER       

       ELAPSED USER TIME (SEC)      =  0.10000    
       ELAPSED SYSTEM TIME (SEC)    =   0.0000    
       ELAPSED TOTAL CPU TIME (SEC) =  0.10000    
       ELAPSED WALLCLOCK TIME (SEC) =          0

 CURRENT VALUE OF MONITOR NODE          3 D.O.F.  1 IS   2.900E-02

  NUMBER OF EQUATIONS =         6     NUMBER OF RHS =    1
  NUMBER OF FLOATING PT. OPERATIONS =  9.10E+01

     CHECK POINT   START OF SOLVER    

     CHECK POINT  END OF SOLVER       

       ELAPSED USER TIME (SEC)      =   0.0000    
       ELAPSED SYSTEM TIME (SEC)    =   0.0000    
       ELAPSED TOTAL CPU TIME (SEC) =   0.0000    
       ELAPSED WALLCLOCK TIME (SEC) =          0

 CURRENT VALUE OF MONITOR NODE          3 D.O.F.  1 IS   2.800E-02

  NUMBER OF EQUATIONS =         6     NUMBER OF RHS =    1
  NUMBER OF FLOATING PT. OPERATIONS =  9.10E+01

     CHECK POINT   START OF SOLVER    

     CHECK POINT  END OF SOLVER       

       ELAPSED USER TIME (SEC)      =   0.0000    
       ELAPSED SYSTEM TIME (SEC)    =   0.0000    
       ELAPSED TOTAL CPU TIME (SEC) =   0.0000    
       ELAPSED WALLCLOCK TIME (SEC) =          0

 CURRENT VALUE OF MONITOR NODE          3 D.O.F.  1 IS   2.700E-02

  NUMBER OF EQUATIONS =         6     NUMBER OF RHS =    1
  NUMBER OF FLOATING PT. OPERATIONS =  9.10E+01

     CHECK POINT   START OF SOLVER    

     CHECK POINT  END OF SOLVER       

       ELAPSED USER TIME (SEC)      =   0.0000    
       ELAPSED SYSTEM TIME (SEC)    =   0.0000    
       ELAPSED TOTAL CPU TIME (SEC) =   0.0000    
       ELAPSED WALLCLOCK TIME (SEC) =          0

 CURRENT VALUE OF MONITOR NODE          3 D.O.F.  1 IS   2.600E-02

  NUMBER OF EQUATIONS =         6     NUMBER OF RHS =    1
  NUMBER OF FLOATING PT. OPERATIONS =  9.10E+01

     CHECK POINT   START OF SOLVER    

     CHECK POINT  END OF SOLVER       

       ELAPSED USER TIME (SEC)      =   0.0000    
       ELAPSED SYSTEM TIME (SEC)    =   0.0000    
       ELAPSED TOTAL CPU TIME (SEC) =   0.0000    
       ELAPSED WALLCLOCK TIME (SEC) =          0

 CURRENT VALUE OF MONITOR NODE          3 D.O.F.  1 IS   2.500E-02

  NUMBER OF EQUATIONS =         6     NUMBER OF RHS =    1
  NUMBER OF FLOATING PT. OPERATIONS =  9.10E+01

     CHECK POINT   START OF SOLVER    

     CHECK POINT  END OF SOLVER       

       ELAPSED USER TIME (SEC)      =   0.0000    
       ELAPSED SYSTEM TIME (SEC)    =   0.0000    
       ELAPSED TOTAL CPU TIME (SEC) =   0.0000    
       ELAPSED WALLCLOCK TIME (SEC) =          0

 CURRENT VALUE OF MONITOR NODE          3 D.O.F.  1 IS   2.400E-02

  NUMBER OF EQUATIONS =         6     NUMBER OF RHS =    1
  NUMBER OF FLOATING PT. OPERATIONS =  9.10E+01

     CHECK POINT   START OF SOLVER    

     CHECK POINT  END OF SOLVER       

       ELAPSED USER TIME (SEC)      =   0.0000    
       ELAPSED SYSTEM TIME (SEC)    =   0.0000    
       ELAPSED TOTAL CPU TIME (SEC) =   0.0000    
       ELAPSED WALLCLOCK TIME (SEC) =          0

 CURRENT VALUE OF MONITOR NODE          3 D.O.F.  1 IS   2.300E-02

  NUMBER OF EQUATIONS =         6     NUMBER OF RHS =    1
  NUMBER OF FLOATING PT. OPERATIONS =  9.10E+01

     CHECK POINT   START OF SOLVER    

     CHECK POINT  END OF SOLVER       

       ELAPSED USER TIME (SEC)      =   0.0000    
       ELAPSED SYSTEM TIME (SEC)    =   0.0000    
       ELAPSED TOTAL CPU TIME (SEC) =   0.0000    
       ELAPSED WALLCLOCK TIME (SEC) =          0

 CURRENT VALUE OF MONITOR NODE          3 D.O.F.  1 IS   2.200E-02

  NUMBER OF EQUATIONS =         6     NUMBER OF RHS =    1
  NUMBER OF FLOATING PT. OPERATIONS =  9.10E+01

     CHECK POINT   START OF SOLVER    

     CHECK POINT  END OF SOLVER       

       ELAPSED USER TIME (SEC)      =   0.0000    
       ELAPSED SYSTEM TIME (SEC)    =   0.0000    
       ELAPSED TOTAL CPU TIME (SEC) =   0.0000    
       ELAPSED WALLCLOCK TIME (SEC) =          0

 CURRENT VALUE OF MONITOR NODE          3 D.O.F.  1 IS   2.100E-02

  NUMBER OF EQUATIONS =         6     NUMBER OF RHS =    1
  NUMBER OF FLOATING PT. OPERATIONS =  9.10E+01

     CHECK POINT   START OF SOLVER    

     CHECK POINT  END OF SOLVER       

       ELAPSED USER TIME (SEC)      =   0.0000    
       ELAPSED SYSTEM TIME (SEC)    =   0.0000    
       ELAPSED TOTAL CPU TIME (SEC) =   0.0000    
       ELAPSED WALLCLOCK TIME (SEC) =          0
 

 ***WARNING: THE SYSTEM MATRIX HAS 2 NEGATIVE EIGENVALUES.

     NEGATIVE EIGENVALUES MEAN THAT THE SYSTEM MATRIX IS NOT 
     POSITIVE DEFINITE:
     FOR EXAMPLE, A BIFURCATION (BUCKLING) LOAD MAY HAVE BEEN EXCEEDED.

 CURRENT VALUE OF MONITOR NODE          3 D.O.F.  1 IS   2.000E-02

  NUMBER OF EQUATIONS =         6     NUMBER OF RHS =    1
  NUMBER OF FLOATING PT. OPERATIONS =  9.10E+01

     CHECK POINT   START OF SOLVER    

     CHECK POINT  END OF SOLVER       

       ELAPSED USER TIME (SEC)      =   0.0000    
       ELAPSED SYSTEM TIME (SEC)    =   0.0000    
       ELAPSED TOTAL CPU TIME (SEC) =   0.0000    
       ELAPSED WALLCLOCK TIME (SEC) =          0
 

 ***WARNING: THE SYSTEM MATRIX HAS 2 NEGATIVE EIGENVALUES.
             EXPLANATIONS ARE SUGGESTED AFTER THE FIRST OCCURRENCE OF THIS MESSAGE.

 CURRENT VALUE OF MONITOR NODE          3 D.O.F.  1 IS   1.900E-02

  NUMBER OF EQUATIONS =         6     NUMBER OF RHS =    1
  NUMBER OF FLOATING PT. OPERATIONS =  9.10E+01

     CHECK POINT   START OF SOLVER    

     CHECK POINT  END OF SOLVER       

       ELAPSED USER TIME (SEC)      =   0.0000    
       ELAPSED SYSTEM TIME (SEC)    =   0.0000    
       ELAPSED TOTAL CPU TIME (SEC) =   0.0000    
       ELAPSED WALLCLOCK TIME (SEC) =          0
 

 ***WARNING: THE SYSTEM MATRIX HAS 2 NEGATIVE EIGENVALUES.
             EXPLANATIONS ARE SUGGESTED AFTER THE FIRST OCCURRENCE OF THIS MESSAGE.

 CURRENT VALUE OF MONITOR NODE          3 D.O.F.  1 IS   1.800E-02

  NUMBER OF EQUATIONS =         6     NUMBER OF RHS =    1
  NUMBER OF FLOATING PT. OPERATIONS =  9.10E+01

     CHECK POINT   START OF SOLVER    

     CHECK POINT  END OF SOLVER       

       ELAPSED USER TIME (SEC)      =   0.0000    
       ELAPSED SYSTEM TIME (SEC)    =   0.0000    
       ELAPSED TOTAL CPU TIME (SEC) =   0.0000    
       ELAPSED WALLCLOCK TIME (SEC) =          0
 

 ***WARNING: THE SYSTEM MATRIX HAS 2 NEGATIVE EIGENVALUES.
             EXPLANATIONS ARE SUGGESTED AFTER THE FIRST OCCURRENCE OF THIS MESSAGE.

 CURRENT VALUE OF MONITOR NODE          3 D.O.F.  1 IS   1.700E-02

  NUMBER OF EQUATIONS =         6     NUMBER OF RHS =    1
  NUMBER OF FLOATING PT. OPERATIONS =  9.10E+01

     CHECK POINT   START OF SOLVER    

     CHECK POINT  END OF SOLVER       

       ELAPSED USER TIME (SEC)      =   0.0000    
       ELAPSED SYSTEM TIME (SEC)    =   0.0000    
       ELAPSED TOTAL CPU TIME (SEC) =   0.0000    
       ELAPSED WALLCLOCK TIME (SEC) =          0
 

 ***WARNING: THE SYSTEM MATRIX HAS 2 NEGATIVE EIGENVALUES.
             EXPLANATIONS ARE SUGGESTED AFTER THE FIRST OCCURRENCE OF THIS MESSAGE.

 CURRENT VALUE OF MONITOR NODE          3 D.O.F.  1 IS   1.600E-02

  NUMBER OF EQUATIONS =         6     NUMBER OF RHS =    1
  NUMBER OF FLOATING PT. OPERATIONS =  9.10E+01

     CHECK POINT   START OF SOLVER    

     CHECK POINT  END OF SOLVER       

       ELAPSED USER TIME (SEC)      =   0.0000    
       ELAPSED SYSTEM TIME (SEC)    =   0.0000    
       ELAPSED TOTAL CPU TIME (SEC) =   0.0000    
       ELAPSED WALLCLOCK TIME (SEC) =          0
 

 ***WARNING: THE SYSTEM MATRIX HAS 2 NEGATIVE EIGENVALUES.
             EXPLANATIONS ARE SUGGESTED AFTER THE FIRST OCCURRENCE OF THIS MESSAGE.

 CURRENT VALUE OF MONITOR NODE          3 D.O.F.  1 IS   1.500E-02

  NUMBER OF EQUATIONS =         6     NUMBER OF RHS =    1
  NUMBER OF FLOATING PT. OPERATIONS =  9.10E+01

     CHECK POINT   START OF SOLVER    

     CHECK POINT  END OF SOLVER       

       ELAPSED USER TIME (SEC)      =   0.0000    
       ELAPSED SYSTEM TIME (SEC)    =   0.0000    
       ELAPSED TOTAL CPU TIME (SEC) =   0.0000    
       ELAPSED WALLCLOCK TIME (SEC) =          0
 

 ***WARNING: THE SYSTEM MATRIX HAS 2 NEGATIVE EIGENVALUES.
             EXPLANATIONS ARE SUGGESTED AFTER THE FIRST OCCURRENCE OF THIS MESSAGE.

 CURRENT VALUE OF MONITOR NODE          3 D.O.F.  1 IS   1.400E-02

  NUMBER OF EQUATIONS =         6     NUMBER OF RHS =    1
  NUMBER OF FLOATING PT. OPERATIONS =  9.10E+01

     CHECK POINT   START OF SOLVER    

     CHECK POINT  END OF SOLVER       

       ELAPSED USER TIME (SEC)      =   0.0000    
       ELAPSED SYSTEM TIME (SEC)    =   0.0000    
       ELAPSED TOTAL CPU TIME (SEC) =   0.0000    
       ELAPSED WALLCLOCK TIME (SEC) =          0
 

 ***WARNING: THE SYSTEM MATRIX HAS 2 NEGATIVE EIGENVALUES.
             EXPLANATIONS ARE SUGGESTED AFTER THE FIRST OCCURRENCE OF THIS MESSAGE.

 CURRENT VALUE OF MONITOR NODE          3 D.O.F.  1 IS   1.300E-02

  NUMBER OF EQUATIONS =         6     NUMBER OF RHS =    1
  NUMBER OF FLOATING PT. OPERATIONS =  9.10E+01

     CHECK POINT   START OF SOLVER    

     CHECK POINT  END OF SOLVER       

       ELAPSED USER TIME (SEC)      =   0.0000    
       ELAPSED SYSTEM TIME (SEC)    =   0.0000    
       ELAPSED TOTAL CPU TIME (SEC) =   0.0000    
       ELAPSED WALLCLOCK TIME (SEC) =          0
 

 ***WARNING: THE SYSTEM MATRIX HAS 2 NEGATIVE EIGENVALUES.
             EXPLANATIONS ARE SUGGESTED AFTER THE FIRST OCCURRENCE OF THIS MESSAGE.

 CURRENT VALUE OF MONITOR NODE          3 D.O.F.  1 IS   1.200E-02

  NUMBER OF EQUATIONS =         6     NUMBER OF RHS =    1
  NUMBER OF FLOATING PT. OPERATIONS =  9.10E+01

     CHECK POINT   START OF SOLVER    

     CHECK POINT  END OF SOLVER       

       ELAPSED USER TIME (SEC)      =   0.0000    
       ELAPSED SYSTEM TIME (SEC)    =   0.0000    
       ELAPSED TOTAL CPU TIME (SEC) =   0.0000    
       ELAPSED WALLCLOCK TIME (SEC) =          0
 

 ***WARNING: THE SYSTEM MATRIX HAS 2 NEGATIVE EIGENVALUES.
             EXPLANATIONS ARE SUGGESTED AFTER THE FIRST OCCURRENCE OF THIS MESSAGE.

 CURRENT VALUE OF MONITOR NODE          3 D.O.F.  1 IS   1.100E-02

  NUMBER OF EQUATIONS =         6     NUMBER OF RHS =    1
  NUMBER OF FLOATING PT. OPERATIONS =  9.10E+01

     CHECK POINT   START OF SOLVER    

     CHECK POINT  END OF SOLVER       

       ELAPSED USER TIME (SEC)      =   0.0000    
       ELAPSED SYSTEM TIME (SEC)    =   0.0000    
       ELAPSED TOTAL CPU TIME (SEC) =   0.0000    
       ELAPSED WALLCLOCK TIME (SEC) =          0
 

 ***WARNING: THE SYSTEM MATRIX HAS 2 NEGATIVE EIGENVALUES.
             EXPLANATIONS ARE SUGGESTED AFTER THE FIRST OCCURRENCE OF THIS MESSAGE.

 CURRENT VALUE OF MONITOR NODE          3 D.O.F.  1 IS   1.000E-02

  NUMBER OF EQUATIONS =         6     NUMBER OF RHS =    1
  NUMBER OF FLOATING PT. OPERATIONS =  9.10E+01

     CHECK POINT   START OF SOLVER    

     CHECK POINT  END OF SOLVER       

       ELAPSED USER TIME (SEC)      =   0.0000    
       ELAPSED SYSTEM TIME (SEC)    =   0.0000    
       ELAPSED TOTAL CPU TIME (SEC) =   0.0000    
       ELAPSED WALLCLOCK TIME (SEC) =          0
 

 ***WARNING: THE SYSTEM MATRIX HAS 2 NEGATIVE EIGENVALUES.
             EXPLANATIONS ARE SUGGESTED AFTER THE FIRST OCCURRENCE OF THIS MESSAGE.

 CURRENT VALUE OF MONITOR NODE          3 D.O.F.  1 IS   9.000E-03

  NUMBER OF EQUATIONS =         6     NUMBER OF RHS =    1
  NUMBER OF FLOATING PT. OPERATIONS =  9.10E+01

     CHECK POINT   START OF SOLVER    

     CHECK POINT  END OF SOLVER       

       ELAPSED USER TIME (SEC)      =   0.0000    
       ELAPSED SYSTEM TIME (SEC)    =   0.0000    
       ELAPSED TOTAL CPU TIME (SEC) =   0.0000    
       ELAPSED WALLCLOCK TIME (SEC) =          0
 

 ***WARNING: THE SYSTEM MATRIX HAS 2 NEGATIVE EIGENVALUES.
             EXPLANATIONS ARE SUGGESTED AFTER THE FIRST OCCURRENCE OF THIS MESSAGE.

 CURRENT VALUE OF MONITOR NODE          3 D.O.F.  1 IS   8.000E-03

  NUMBER OF EQUATIONS =         6     NUMBER OF RHS =    1
  NUMBER OF FLOATING PT. OPERATIONS =  9.10E+01

     CHECK POINT   START OF SOLVER    

     CHECK POINT  END OF SOLVER       

       ELAPSED USER TIME (SEC)      =   0.0000    
       ELAPSED SYSTEM TIME (SEC)    =   0.0000    
       ELAPSED TOTAL CPU TIME (SEC) =   0.0000    
       ELAPSED WALLCLOCK TIME (SEC) =          0
 

 ***WARNING: THE SYSTEM MATRIX HAS 2 NEGATIVE EIGENVALUES.
             EXPLANATIONS ARE SUGGESTED AFTER THE FIRST OCCURRENCE OF THIS MESSAGE.

 CURRENT VALUE OF MONITOR NODE          3 D.O.F.  1 IS   7.000E-03

  NUMBER OF EQUATIONS =         6     NUMBER OF RHS =    1
  NUMBER OF FLOATING PT. OPERATIONS =  9.10E+01

     CHECK POINT   START OF SOLVER    

     CHECK POINT  END OF SOLVER       

       ELAPSED USER TIME (SEC)      =   0.0000    
       ELAPSED SYSTEM TIME (SEC)    =   0.0000    
       ELAPSED TOTAL CPU TIME (SEC) =   0.0000    
       ELAPSED WALLCLOCK TIME (SEC) =          0
 

 ***WARNING: THE SYSTEM MATRIX HAS 2 NEGATIVE EIGENVALUES.
             EXPLANATIONS ARE SUGGESTED AFTER THE FIRST OCCURRENCE OF THIS MESSAGE.

 CURRENT VALUE OF MONITOR NODE          3 D.O.F.  1 IS   6.000E-03

  NUMBER OF EQUATIONS =         6     NUMBER OF RHS =    1
  NUMBER OF FLOATING PT. OPERATIONS =  9.10E+01

     CHECK POINT   START OF SOLVER    

     CHECK POINT  END OF SOLVER       

       ELAPSED USER TIME (SEC)      =   0.0000    
       ELAPSED SYSTEM TIME (SEC)    =   0.0000    
       ELAPSED TOTAL CPU TIME (SEC) =   0.0000    
       ELAPSED WALLCLOCK TIME (SEC) =          0
 

 ***WARNING: THE SYSTEM MATRIX HAS 2 NEGATIVE EIGENVALUES.
             EXPLANATIONS ARE SUGGESTED AFTER THE FIRST OCCURRENCE OF THIS MESSAGE.

 CURRENT VALUE OF MONITOR NODE          3 D.O.F.  1 IS   5.000E-03

  NUMBER OF EQUATIONS =         6     NUMBER OF RHS =    1
  NUMBER OF FLOATING PT. OPERATIONS =  9.10E+01

     CHECK POINT   START OF SOLVER    

     CHECK POINT  END OF SOLVER       

       ELAPSED USER TIME (SEC)      =   0.0000    
       ELAPSED SYSTEM TIME (SEC)    =   0.0000    
       ELAPSED TOTAL CPU TIME (SEC) =   0.0000    
       ELAPSED WALLCLOCK TIME (SEC) =          0
 

 ***WARNING: THE SYSTEM MATRIX HAS 2 NEGATIVE EIGENVALUES.
             EXPLANATIONS ARE SUGGESTED AFTER THE FIRST OCCURRENCE OF THIS MESSAGE.

 CURRENT VALUE OF MONITOR NODE          3 D.O.F.  1 IS   4.000E-03

  NUMBER OF EQUATIONS =         6     NUMBER OF RHS =    1
  NUMBER OF FLOATING PT. OPERATIONS =  9.10E+01

     CHECK POINT   START OF SOLVER    

     CHECK POINT  END OF SOLVER       

       ELAPSED USER TIME (SEC)      =   0.0000    
       ELAPSED SYSTEM TIME (SEC)    =   0.0000    
       ELAPSED TOTAL CPU TIME (SEC) =   0.0000    
       ELAPSED WALLCLOCK TIME (SEC) =          0
 

 ***WARNING: THE SYSTEM MATRIX HAS 2 NEGATIVE EIGENVALUES.
             EXPLANATIONS ARE SUGGESTED AFTER THE FIRST OCCURRENCE OF THIS MESSAGE.

 CURRENT VALUE OF MONITOR NODE          3 D.O.F.  1 IS   3.000E-03

  NUMBER OF EQUATIONS =         6     NUMBER OF RHS =    1
  NUMBER OF FLOATING PT. OPERATIONS =  9.10E+01

     CHECK POINT   START OF SOLVER    

     CHECK POINT  END OF SOLVER       

       ELAPSED USER TIME (SEC)      =   0.0000    
       ELAPSED SYSTEM TIME (SEC)    =   0.0000    
       ELAPSED TOTAL CPU TIME (SEC) =   0.0000    
       ELAPSED WALLCLOCK TIME (SEC) =          0
 

 ***WARNING: THE SYSTEM MATRIX HAS 2 NEGATIVE EIGENVALUES.
             EXPLANATIONS ARE SUGGESTED AFTER THE FIRST OCCURRENCE OF THIS MESSAGE.

 CURRENT VALUE OF MONITOR NODE          3 D.O.F.  1 IS   2.000E-03

  NUMBER OF EQUATIONS =         6     NUMBER OF RHS =    1
  NUMBER OF FLOATING PT. OPERATIONS =  9.10E+01

     CHECK POINT   START OF SOLVER    

     CHECK POINT  END OF SOLVER       

       ELAPSED USER TIME (SEC)      =   0.0000    
       ELAPSED SYSTEM TIME (SEC)    =   0.0000    
       ELAPSED TOTAL CPU TIME (SEC) =   0.0000    
       ELAPSED WALLCLOCK TIME (SEC) =          0
 

 ***WARNING: THE SYSTEM MATRIX HAS 2 NEGATIVE EIGENVALUES.
             EXPLANATIONS ARE SUGGESTED AFTER THE FIRST OCCURRENCE OF THIS MESSAGE.

 CURRENT VALUE OF MONITOR NODE          3 D.O.F.  1 IS   1.000E-03

  NUMBER OF EQUATIONS =         6     NUMBER OF RHS =    1
  NUMBER OF FLOATING PT. OPERATIONS =  9.10E+01

     CHECK POINT   START OF SOLVER    

     CHECK POINT  END OF SOLVER       

       ELAPSED USER TIME (SEC)      =   0.0000    
       ELAPSED SYSTEM TIME (SEC)    =   0.0000    
       ELAPSED TOTAL CPU TIME (SEC) =   0.0000    
       ELAPSED WALLCLOCK TIME (SEC) =          0
 

 ***WARNING: THE SYSTEM MATRIX HAS 2 NEGATIVE EIGENVALUES.
             EXPLANATIONS ARE SUGGESTED AFTER THE FIRST OCCURRENCE OF THIS MESSAGE.

 CURRENT VALUE OF MONITOR NODE          3 D.O.F.  1 IS   5.334E-17

  NUMBER OF EQUATIONS =         6     NUMBER OF RHS =    1
  NUMBER OF FLOATING PT. OPERATIONS =  9.10E+01

     CHECK POINT   START OF SOLVER    

     CHECK POINT  END OF SOLVER       

       ELAPSED USER TIME (SEC)      =   0.0000    
       ELAPSED SYSTEM TIME (SEC)    =   0.0000    
       ELAPSED TOTAL CPU TIME (SEC) =   0.0000    
       ELAPSED WALLCLOCK TIME (SEC) =          0
 

 ***WARNING: THE SYSTEM MATRIX HAS 2 NEGATIVE EIGENVALUES.
             EXPLANATIONS ARE SUGGESTED AFTER THE FIRST OCCURRENCE OF THIS MESSAGE.

 CURRENT VALUE OF MONITOR NODE          3 D.O.F.  1 IS  -1.000E-03

  NUMBER OF EQUATIONS =         6     NUMBER OF RHS =    1
  NUMBER OF FLOATING PT. OPERATIONS =  9.10E+01

     CHECK POINT   START OF SOLVER    

     CHECK POINT  END OF SOLVER       

       ELAPSED USER TIME (SEC)      =   0.0000    
       ELAPSED SYSTEM TIME (SEC)    =   0.0000    
       ELAPSED TOTAL CPU TIME (SEC) =   0.0000    
       ELAPSED WALLCLOCK TIME (SEC) =          0
 

 ***WARNING: THE SYSTEM MATRIX HAS 2 NEGATIVE EIGENVALUES.
             EXPLANATIONS ARE SUGGESTED AFTER THE FIRST OCCURRENCE OF THIS MESSAGE.

 CURRENT VALUE OF MONITOR NODE          3 D.O.F.  1 IS  -2.000E-03

  NUMBER OF EQUATIONS =         6     NUMBER OF RHS =    1
  NUMBER OF FLOATING PT. OPERATIONS =  9.10E+01

     CHECK POINT   START OF SOLVER    

     CHECK POINT  END OF SOLVER       

       ELAPSED USER TIME (SEC)      =   0.0000    
       ELAPSED SYSTEM TIME (SEC)    =   0.0000    
       ELAPSED TOTAL CPU TIME (SEC) =   0.0000    
       ELAPSED WALLCLOCK TIME (SEC) =          0
 

 ***WARNING: THE SYSTEM MATRIX HAS 2 NEGATIVE EIGENVALUES.
             EXPLANATIONS ARE SUGGESTED AFTER THE FIRST OCCURRENCE OF THIS MESSAGE.

 CURRENT VALUE OF MONITOR NODE          3 D.O.F.  1 IS  -3.000E-03

  NUMBER OF EQUATIONS =         6     NUMBER OF RHS =    1
  NUMBER OF FLOATING PT. OPERATIONS =  9.10E+01

     CHECK POINT   START OF SOLVER    

     CHECK POINT  END OF SOLVER       

       ELAPSED USER TIME (SEC)      =   0.0000    
       ELAPSED SYSTEM TIME (SEC)    =   0.0000    
       ELAPSED TOTAL CPU TIME (SEC) =   0.0000    
       ELAPSED WALLCLOCK TIME (SEC) =          0
 

 ***WARNING: THE SYSTEM MATRIX HAS 2 NEGATIVE EIGENVALUES.
             EXPLANATIONS ARE SUGGESTED AFTER THE FIRST OCCURRENCE OF THIS MESSAGE.

 CURRENT VALUE OF MONITOR NODE          3 D.O.F.  1 IS  -4.000E-03

  NUMBER OF EQUATIONS =         6     NUMBER OF RHS =    1
  NUMBER OF FLOATING PT. OPERATIONS =  9.10E+01

     CHECK POINT   START OF SOLVER    

     CHECK POINT  END OF SOLVER       

       ELAPSED USER TIME (SEC)      =   0.0000    
       ELAPSED SYSTEM TIME (SEC)    =   0.0000    
       ELAPSED TOTAL CPU TIME (SEC) =   0.0000    
       ELAPSED WALLCLOCK TIME (SEC) =          0
 

 ***WARNING: THE SYSTEM MATRIX HAS 2 NEGATIVE EIGENVALUES.
             EXPLANATIONS ARE SUGGESTED AFTER THE FIRST OCCURRENCE OF THIS MESSAGE.

 CURRENT VALUE OF MONITOR NODE          3 D.O.F.  1 IS  -5.000E-03

  NUMBER OF EQUATIONS =         6     NUMBER OF RHS =    1
  NUMBER OF FLOATING PT. OPERATIONS =  9.10E+01

     CHECK POINT   START OF SOLVER    

     CHECK POINT  END OF SOLVER       

       ELAPSED USER TIME (SEC)      =   0.0000    
       ELAPSED SYSTEM TIME (SEC)    =   0.0000    
       ELAPSED TOTAL CPU TIME (SEC) =   0.0000    
       ELAPSED WALLCLOCK TIME (SEC) =          0
 

 ***WARNING: THE SYSTEM MATRIX HAS 2 NEGATIVE EIGENVALUES.
             EXPLANATIONS ARE SUGGESTED AFTER THE FIRST OCCURRENCE OF THIS MESSAGE.

 CURRENT VALUE OF MONITOR NODE          3 D.O.F.  1 IS  -6.000E-03

  NUMBER OF EQUATIONS =         6     NUMBER OF RHS =    1
  NUMBER OF FLOATING PT. OPERATIONS =  9.10E+01

     CHECK POINT   START OF SOLVER    

     CHECK POINT  END OF SOLVER       

       ELAPSED USER TIME (SEC)      =   0.0000    
       ELAPSED SYSTEM TIME (SEC)    =   0.0000    
       ELAPSED TOTAL CPU TIME (SEC) =   0.0000    
       ELAPSED WALLCLOCK TIME (SEC) =          0
 

 ***WARNING: THE SYSTEM MATRIX HAS 2 NEGATIVE EIGENVALUES.
             EXPLANATIONS ARE SUGGESTED AFTER THE FIRST OCCURRENCE OF THIS MESSAGE.

 CURRENT VALUE OF MONITOR NODE          3 D.O.F.  1 IS  -7.000E-03

  NUMBER OF EQUATIONS =         6     NUMBER OF RHS =    1
  NUMBER OF FLOATING PT. OPERATIONS =  9.10E+01

     CHECK POINT   START OF SOLVER    

     CHECK POINT  END OF SOLVER       

       ELAPSED USER TIME (SEC)      =   0.0000    
       ELAPSED SYSTEM TIME (SEC)    =   0.0000    
       ELAPSED TOTAL CPU TIME (SEC) =   0.0000    
       ELAPSED WALLCLOCK TIME (SEC) =          0
 

 ***WARNING: THE SYSTEM MATRIX HAS 2 NEGATIVE EIGENVALUES.
             EXPLANATIONS ARE SUGGESTED AFTER THE FIRST OCCURRENCE OF THIS MESSAGE.

 CURRENT VALUE OF MONITOR NODE          3 D.O.F.  1 IS  -8.000E-03

  NUMBER OF EQUATIONS =         6     NUMBER OF RHS =    1
  NUMBER OF FLOATING PT. OPERATIONS =  9.10E+01

     CHECK POINT   START OF SOLVER    

     CHECK POINT  END OF SOLVER       

       ELAPSED USER TIME (SEC)      =   0.0000    
       ELAPSED SYSTEM TIME (SEC)    =   0.0000    
       ELAPSED TOTAL CPU TIME (SEC) =   0.0000    
       ELAPSED WALLCLOCK TIME (SEC) =          0
 

 ***WARNING: THE SYSTEM MATRIX HAS 2 NEGATIVE EIGENVALUES.
             EXPLANATIONS ARE SUGGESTED AFTER THE FIRST OCCURRENCE OF THIS MESSAGE.

 CURRENT VALUE OF MONITOR NODE          3 D.O.F.  1 IS  -9.000E-03

  NUMBER OF EQUATIONS =         6     NUMBER OF RHS =    1
  NUMBER OF FLOATING PT. OPERATIONS =  9.10E+01

     CHECK POINT   START OF SOLVER    

     CHECK POINT  END OF SOLVER       

       ELAPSED USER TIME (SEC)      =   0.0000    
       ELAPSED SYSTEM TIME (SEC)    =   0.0000    
       ELAPSED TOTAL CPU TIME (SEC) =   0.0000    
       ELAPSED WALLCLOCK TIME (SEC) =          0
 

 ***WARNING: THE SYSTEM MATRIX HAS 2 NEGATIVE EIGENVALUES.
             EXPLANATIONS ARE SUGGESTED AFTER THE FIRST OCCURRENCE OF THIS MESSAGE.

 CURRENT VALUE OF MONITOR NODE          3 D.O.F.  1 IS  -1.000E-02

  NUMBER OF EQUATIONS =         6     NUMBER OF RHS =    1
  NUMBER OF FLOATING PT. OPERATIONS =  9.10E+01

     CHECK POINT   START OF SOLVER    

     CHECK POINT  END OF SOLVER       

       ELAPSED USER TIME (SEC)      =   0.0000    
       ELAPSED SYSTEM TIME (SEC)    =   0.0000    
       ELAPSED TOTAL CPU TIME (SEC) =   0.0000    
       ELAPSED WALLCLOCK TIME (SEC) =          0
 

 ***WARNING: THE SYSTEM MATRIX HAS 2 NEGATIVE EIGENVALUES.
             EXPLANATIONS ARE SUGGESTED AFTER THE FIRST OCCURRENCE OF THIS MESSAGE.

 CURRENT VALUE OF MONITOR NODE          3 D.O.F.  1 IS  -1.100E-02

  NUMBER OF EQUATIONS =         6     NUMBER OF RHS =    1
  NUMBER OF FLOATING PT. OPERATIONS =  9.10E+01

     CHECK POINT   START OF SOLVER    

     CHECK POINT  END OF SOLVER       

       ELAPSED USER TIME (SEC)      =   0.0000    
       ELAPSED SYSTEM TIME (SEC)    =   0.0000    
       ELAPSED TOTAL CPU TIME (SEC) =   0.0000    
       ELAPSED WALLCLOCK TIME (SEC) =          0
 

 ***WARNING: THE SYSTEM MATRIX HAS 2 NEGATIVE EIGENVALUES.
             EXPLANATIONS ARE SUGGESTED AFTER THE FIRST OCCURRENCE OF THIS MESSAGE.

 CURRENT VALUE OF MONITOR NODE          3 D.O.F.  1 IS  -1.200E-02

  NUMBER OF EQUATIONS =         6     NUMBER OF RHS =    1
  NUMBER OF FLOATING PT. OPERATIONS =  9.10E+01

     CHECK POINT   START OF SOLVER    

     CHECK POINT  END OF SOLVER       

       ELAPSED USER TIME (SEC)      =   0.0000    
       ELAPSED SYSTEM TIME (SEC)    =   0.0000    
       ELAPSED TOTAL CPU TIME (SEC) =   0.0000    
       ELAPSED WALLCLOCK TIME (SEC) =          0
 

 ***WARNING: THE SYSTEM MATRIX HAS 2 NEGATIVE EIGENVALUES.
             EXPLANATIONS ARE SUGGESTED AFTER THE FIRST OCCURRENCE OF THIS MESSAGE.

 CURRENT VALUE OF MONITOR NODE          3 D.O.F.  1 IS  -1.300E-02

  NUMBER OF EQUATIONS =         6     NUMBER OF RHS =    1
  NUMBER OF FLOATING PT. OPERATIONS =  9.10E+01

     CHECK POINT   START OF SOLVER    

     CHECK POINT  END OF SOLVER       

       ELAPSED USER TIME (SEC)      =   0.0000    
       ELAPSED SYSTEM TIME (SEC)    =   0.0000    
       ELAPSED TOTAL CPU TIME (SEC) =   0.0000    
       ELAPSED WALLCLOCK TIME (SEC) =          0
 

 ***WARNING: THE SYSTEM MATRIX HAS 2 NEGATIVE EIGENVALUES.
             EXPLANATIONS ARE SUGGESTED AFTER THE FIRST OCCURRENCE OF THIS MESSAGE.

 CURRENT VALUE OF MONITOR NODE          3 D.O.F.  1 IS  -1.400E-02

  NUMBER OF EQUATIONS =         6     NUMBER OF RHS =    1
  NUMBER OF FLOATING PT. OPERATIONS =  9.10E+01

     CHECK POINT   START OF SOLVER    

     CHECK POINT  END OF SOLVER       

       ELAPSED USER TIME (SEC)      =   0.0000    
       ELAPSED SYSTEM TIME (SEC)    =   0.0000    
       ELAPSED TOTAL CPU TIME (SEC) =   0.0000    
       ELAPSED WALLCLOCK TIME (SEC) =          0
 

 ***WARNING: THE SYSTEM MATRIX HAS 2 NEGATIVE EIGENVALUES.
             EXPLANATIONS ARE SUGGESTED AFTER THE FIRST OCCURRENCE OF THIS MESSAGE.

 CURRENT VALUE OF MONITOR NODE          3 D.O.F.  1 IS  -1.500E-02

  NUMBER OF EQUATIONS =         6     NUMBER OF RHS =    1
  NUMBER OF FLOATING PT. OPERATIONS =  9.10E+01

     CHECK POINT   START OF SOLVER    

     CHECK POINT  END OF SOLVER       

       ELAPSED USER TIME (SEC)      =   0.0000    
       ELAPSED SYSTEM TIME (SEC)    =   0.0000    
       ELAPSED TOTAL CPU TIME (SEC) =   0.0000    
       ELAPSED WALLCLOCK TIME (SEC) =          0
 

 ***WARNING: THE SYSTEM MATRIX HAS 2 NEGATIVE EIGENVALUES.
             EXPLANATIONS ARE SUGGESTED AFTER THE FIRST OCCURRENCE OF THIS MESSAGE.

 CURRENT VALUE OF MONITOR NODE          3 D.O.F.  1 IS  -1.600E-02

  NUMBER OF EQUATIONS =         6     NUMBER OF RHS =    1
  NUMBER OF FLOATING PT. OPERATIONS =  9.10E+01

     CHECK POINT   START OF SOLVER    

     CHECK POINT  END OF SOLVER       

       ELAPSED USER TIME (SEC)      =   0.0000    
       ELAPSED SYSTEM TIME (SEC)    =   0.0000    
       ELAPSED TOTAL CPU TIME (SEC) =   0.0000    
       ELAPSED WALLCLOCK TIME (SEC) =          0
 

 ***WARNING: THE SYSTEM MATRIX HAS 2 NEGATIVE EIGENVALUES.
             EXPLANATIONS ARE SUGGESTED AFTER THE FIRST OCCURRENCE OF THIS MESSAGE.

 CURRENT VALUE OF MONITOR NODE          3 D.O.F.  1 IS  -1.700E-02

  NUMBER OF EQUATIONS =         6     NUMBER OF RHS =    1
  NUMBER OF FLOATING PT. OPERATIONS =  9.10E+01

     CHECK POINT   START OF SOLVER    

     CHECK POINT  END OF SOLVER       

       ELAPSED USER TIME (SEC)      =   0.0000    
       ELAPSED SYSTEM TIME (SEC)    =   0.0000    
       ELAPSED TOTAL CPU TIME (SEC) =   0.0000    
       ELAPSED WALLCLOCK TIME (SEC) =          0
 

 ***WARNING: THE SYSTEM MATRIX HAS 2 NEGATIVE EIGENVALUES.
             EXPLANATIONS ARE SUGGESTED AFTER THE FIRST OCCURRENCE OF THIS MESSAGE.

 CURRENT VALUE OF MONITOR NODE          3 D.O.F.  1 IS  -1.800E-02

  NUMBER OF EQUATIONS =         6     NUMBER OF RHS =    1
  NUMBER OF FLOATING PT. OPERATIONS =  9.10E+01

     CHECK POINT   START OF SOLVER    

     CHECK POINT  END OF SOLVER       

       ELAPSED USER TIME (SEC)      =   0.0000    
       ELAPSED SYSTEM TIME (SEC)    =   0.0000    
       ELAPSED TOTAL CPU TIME (SEC) =   0.0000    
       ELAPSED WALLCLOCK TIME (SEC) =          0
 

 ***WARNING: THE SYSTEM MATRIX HAS 2 NEGATIVE EIGENVALUES.
             EXPLANATIONS ARE SUGGESTED AFTER THE FIRST OCCURRENCE OF THIS MESSAGE.

 CURRENT VALUE OF MONITOR NODE          3 D.O.F.  1 IS  -1.900E-02

  NUMBER OF EQUATIONS =         6     NUMBER OF RHS =    1
  NUMBER OF FLOATING PT. OPERATIONS =  9.10E+01

     CHECK POINT   START OF SOLVER    

     CHECK POINT  END OF SOLVER       

       ELAPSED USER TIME (SEC)      =   0.0000    
       ELAPSED SYSTEM TIME (SEC)    =   0.0000    
       ELAPSED TOTAL CPU TIME (SEC) =   0.0000    
       ELAPSED WALLCLOCK TIME (SEC) =          0
 

 ***WARNING: THE SYSTEM MATRIX HAS 2 NEGATIVE EIGENVALUES.
             EXPLANATIONS ARE SUGGESTED AFTER THE FIRST OCCURRENCE OF THIS MESSAGE.

 CURRENT VALUE OF MONITOR NODE          3 D.O.F.  1 IS  -2.000E-02

  NUMBER OF EQUATIONS =         6     NUMBER OF RHS =    1
  NUMBER OF FLOATING PT. OPERATIONS =  9.10E+01

     CHECK POINT   START OF SOLVER    

     CHECK POINT  END OF SOLVER       

       ELAPSED USER TIME (SEC)      =   0.0000    
       ELAPSED SYSTEM TIME (SEC)    =   0.0000    
       ELAPSED TOTAL CPU TIME (SEC) =   0.0000    
       ELAPSED WALLCLOCK TIME (SEC) =          0
 

 ***WARNING: THE SYSTEM MATRIX HAS 2 NEGATIVE EIGENVALUES.
             EXPLANATIONS ARE SUGGESTED AFTER THE FIRST OCCURRENCE OF THIS MESSAGE.

 CURRENT VALUE OF MONITOR NODE          3 D.O.F.  1 IS  -2.100E-02

  NUMBER OF EQUATIONS =         6     NUMBER OF RHS =    1
  NUMBER OF FLOATING PT. OPERATIONS =  9.10E+01

     CHECK POINT   START OF SOLVER    

     CHECK POINT  END OF SOLVER       

       ELAPSED USER TIME (SEC)      =   0.0000    
       ELAPSED SYSTEM TIME (SEC)    =   0.0000    
       ELAPSED TOTAL CPU TIME (SEC) =   0.0000    
       ELAPSED WALLCLOCK TIME (SEC) =          0
 

 ***WARNING: THE SYSTEM MATRIX HAS 2 NEGATIVE EIGENVALUES.
             EXPLANATIONS ARE SUGGESTED AFTER THE FIRST OCCURRENCE OF THIS MESSAGE.

 CURRENT VALUE OF MONITOR NODE          3 D.O.F.  1 IS  -2.200E-02

  NUMBER OF EQUATIONS =         6     NUMBER OF RHS =    1
  NUMBER OF FLOATING PT. OPERATIONS =  9.10E+01

     CHECK POINT   START OF SOLVER    

     CHECK POINT  END OF SOLVER       

       ELAPSED USER TIME (SEC)      =   0.0000    
       ELAPSED SYSTEM TIME (SEC)    =   0.0000    
       ELAPSED TOTAL CPU TIME (SEC) =   0.0000    
       ELAPSED WALLCLOCK TIME (SEC) =          0
 

 ***WARNING: THE SYSTEM MATRIX HAS 2 NEGATIVE EIGENVALUES.
             EXPLANATIONS ARE SUGGESTED AFTER THE FIRST OCCURRENCE OF THIS MESSAGE.

 CURRENT VALUE OF MONITOR NODE          3 D.O.F.  1 IS  -2.300E-02

  NUMBER OF EQUATIONS =         6     NUMBER OF RHS =    1
  NUMBER OF FLOATING PT. OPERATIONS =  9.10E+01

     CHECK POINT   START OF SOLVER    

     CHECK POINT  END OF SOLVER       

       ELAPSED USER TIME (SEC)      =   0.0000    
       ELAPSED SYSTEM TIME (SEC)    =   0.0000    
       ELAPSED TOTAL CPU TIME (SEC) =   0.0000    
       ELAPSED WALLCLOCK TIME (SEC) =          0
 

 ***WARNING: THE SYSTEM MATRIX HAS 2 NEGATIVE EIGENVALUES.
             EXPLANATIONS ARE SUGGESTED AFTER THE FIRST OCCURRENCE OF THIS MESSAGE.

 CURRENT VALUE OF MONITOR NODE          3 D.O.F.  1 IS  -2.400E-02

  NUMBER OF EQUATIONS =         6     NUMBER OF RHS =    1
  NUMBER OF FLOATING PT. OPERATIONS =  9.10E+01

     CHECK POINT   START OF SOLVER    

     CHECK POINT  END OF SOLVER       

       ELAPSED USER TIME (SEC)      =   0.0000    
       ELAPSED SYSTEM TIME (SEC)    =   0.0000    
       ELAPSED TOTAL CPU TIME (SEC) =   0.0000    
       ELAPSED WALLCLOCK TIME (SEC) =          0
 

 ***WARNING: THE SYSTEM MATRIX HAS 2 NEGATIVE EIGENVALUES.
             EXPLANATIONS ARE SUGGESTED AFTER THE FIRST OCCURRENCE OF THIS MESSAGE.

 CURRENT VALUE OF MONITOR NODE          3 D.O.F.  1 IS  -2.500E-02

  NUMBER OF EQUATIONS =         6     NUMBER OF RHS =    1
  NUMBER OF FLOATING PT. OPERATIONS =  9.10E+01

     CHECK POINT   START OF SOLVER    

     CHECK POINT  END OF SOLVER       

       ELAPSED USER TIME (SEC)      =   0.0000    
       ELAPSED SYSTEM TIME (SEC)    =   0.0000    
       ELAPSED TOTAL CPU TIME (SEC) =   0.0000    
       ELAPSED WALLCLOCK TIME (SEC) =          0
 

 ***WARNING: THE SYSTEM MATRIX HAS 2 NEGATIVE EIGENVALUES.
             EXPLANATIONS ARE SUGGESTED AFTER THE FIRST OCCURRENCE OF THIS MESSAGE.

 CURRENT VALUE OF MONITOR NODE          3 D.O.F.  1 IS  -2.600E-02

  NUMBER OF EQUATIONS =         6     NUMBER OF RHS =    1
  NUMBER OF FLOATING PT. OPERATIONS =  9.10E+01

     CHECK POINT   START OF SOLVER    

     CHECK POINT  END OF SOLVER       

       ELAPSED USER TIME (SEC)      =  0.10000    
       ELAPSED SYSTEM TIME (SEC)    =   0.0000    
       ELAPSED TOTAL CPU TIME (SEC) =  0.10000    
       ELAPSED WALLCLOCK TIME (SEC) =          0
 

 ***WARNING: THE SYSTEM MATRIX HAS 2 NEGATIVE EIGENVALUES.
             EXPLANATIONS ARE SUGGESTED AFTER THE FIRST OCCURRENCE OF THIS MESSAGE.

 CURRENT VALUE OF MONITOR NODE          3 D.O.F.  1 IS  -2.700E-02

  NUMBER OF EQUATIONS =         6     NUMBER OF RHS =    1
  NUMBER OF FLOATING PT. OPERATIONS =  9.10E+01

     CHECK POINT   START OF SOLVER    

     CHECK POINT  END OF SOLVER       

       ELAPSED USER TIME (SEC)      =   0.0000    
       ELAPSED SYSTEM TIME (SEC)    =   0.0000    
       ELAPSED TOTAL CPU TIME (SEC) =   0.0000    
       ELAPSED WALLCLOCK TIME (SEC) =          0
 

 ***WARNING: THE SYSTEM MATRIX HAS 2 NEGATIVE EIGENVALUES.
             EXPLANATIONS ARE SUGGESTED AFTER THE FIRST OCCURRENCE OF THIS MESSAGE.

 CURRENT VALUE OF MONITOR NODE          3 D.O.F.  1 IS  -2.800E-02

  NUMBER OF EQUATIONS =         6     NUMBER OF RHS =    1
  NUMBER OF FLOATING PT. OPERATIONS =  9.10E+01

     CHECK POINT   START OF SOLVER    

     CHECK POINT  END OF SOLVER       

       ELAPSED USER TIME (SEC)      =   0.0000    
       ELAPSED SYSTEM TIME (SEC)    =   0.0000    
       ELAPSED TOTAL CPU TIME (SEC) =   0.0000    
       ELAPSED WALLCLOCK TIME (SEC) =          0
 

 ***WARNING: THE SYSTEM MATRIX HAS 2 NEGATIVE EIGENVALUES.
             EXPLANATIONS ARE SUGGESTED AFTER THE FIRST OCCURRENCE OF THIS MESSAGE.

 CURRENT VALUE OF MONITOR NODE          3 D.O.F.  1 IS  -2.900E-02

  NUMBER OF EQUATIONS =         6     NUMBER OF RHS =    1
  NUMBER OF FLOATING PT. OPERATIONS =  9.10E+01

     CHECK POINT   START OF SOLVER    

     CHECK POINT  END OF SOLVER       

       ELAPSED USER TIME (SEC)      =   0.0000    
       ELAPSED SYSTEM TIME (SEC)    =   0.0000    
       ELAPSED TOTAL CPU TIME (SEC) =   0.0000    
       ELAPSED WALLCLOCK TIME (SEC) =          0
 

 ***WARNING: THE SYSTEM MATRIX HAS 2 NEGATIVE EIGENVALUES.
             EXPLANATIONS ARE SUGGESTED AFTER THE FIRST OCCURRENCE OF THIS MESSAGE.

 CURRENT VALUE OF MONITOR NODE          3 D.O.F.  1 IS  -3.000E-02

  NUMBER OF EQUATIONS =         6     NUMBER OF RHS =    1
  NUMBER OF FLOATING PT. OPERATIONS =  9.10E+01

     CHECK POINT   START OF SOLVER    

     CHECK POINT  END OF SOLVER       

       ELAPSED USER TIME (SEC)      =   0.0000    
       ELAPSED SYSTEM TIME (SEC)    =   0.0000    
       ELAPSED TOTAL CPU TIME (SEC) =   0.0000    
       ELAPSED WALLCLOCK TIME (SEC) =          0
 

 ***WARNING: THE SYSTEM MATRIX HAS 2 NEGATIVE EIGENVALUES.
             EXPLANATIONS ARE SUGGESTED AFTER THE FIRST OCCURRENCE OF THIS MESSAGE.

 CURRENT VALUE OF MONITOR NODE          3 D.O.F.  1 IS  -2.900E-02

  NUMBER OF EQUATIONS =         6     NUMBER OF RHS =    1
  NUMBER OF FLOATING PT. OPERATIONS =  9.10E+01

     CHECK POINT   START OF SOLVER    

     CHECK POINT  END OF SOLVER       

       ELAPSED USER TIME (SEC)      =   0.0000    
       ELAPSED SYSTEM TIME (SEC)    =   0.0000    
       ELAPSED TOTAL CPU TIME (SEC) =   0.0000    
       ELAPSED WALLCLOCK TIME (SEC) =          0
 

 ***WARNING: THE SYSTEM MATRIX HAS 2 NEGATIVE EIGENVALUES.
             EXPLANATIONS ARE SUGGESTED AFTER THE FIRST OCCURRENCE OF THIS MESSAGE.

 CURRENT VALUE OF MONITOR NODE          3 D.O.F.  1 IS  -2.800E-02

  NUMBER OF EQUATIONS =         6     NUMBER OF RHS =    1
  NUMBER OF FLOATING PT. OPERATIONS =  9.10E+01

     CHECK POINT   START OF SOLVER    

     CHECK POINT  END OF SOLVER       

       ELAPSED USER TIME (SEC)      =   0.0000    
       ELAPSED SYSTEM TIME (SEC)    =   0.0000    
       ELAPSED TOTAL CPU TIME (SEC) =   0.0000    
       ELAPSED WALLCLOCK TIME (SEC) =          0
 

 ***WARNING: THE SYSTEM MATRIX HAS 2 NEGATIVE EIGENVALUES.
             EXPLANATIONS ARE SUGGESTED AFTER THE FIRST OCCURRENCE OF THIS MESSAGE.

 CURRENT VALUE OF MONITOR NODE          3 D.O.F.  1 IS  -2.700E-02

  NUMBER OF EQUATIONS =         6     NUMBER OF RHS =    1
  NUMBER OF FLOATING PT. OPERATIONS =  9.10E+01

     CHECK POINT   START OF SOLVER    

     CHECK POINT  END OF SOLVER       

       ELAPSED USER TIME (SEC)      =   0.0000    
       ELAPSED SYSTEM TIME (SEC)    =   0.0000    
       ELAPSED TOTAL CPU TIME (SEC) =   0.0000    
       ELAPSED WALLCLOCK TIME (SEC) =          0
 

 ***WARNING: THE SYSTEM MATRIX HAS 2 NEGATIVE EIGENVALUES.
             EXPLANATIONS ARE SUGGESTED AFTER THE FIRST OCCURRENCE OF THIS MESSAGE.

 CURRENT VALUE OF MONITOR NODE          3 D.O.F.  1 IS  -2.600E-02

  NUMBER OF EQUATIONS =         6     NUMBER OF RHS =    1
  NUMBER OF FLOATING PT. OPERATIONS =  9.10E+01

     CHECK POINT   START OF SOLVER    

     CHECK POINT  END OF SOLVER       

       ELAPSED USER TIME (SEC)      =   0.0000    
       ELAPSED SYSTEM TIME (SEC)    =   0.0000    
       ELAPSED TOTAL CPU TIME (SEC) =   0.0000    
       ELAPSED WALLCLOCK TIME (SEC) =          0
 

 ***WARNING: THE SYSTEM MATRIX HAS 2 NEGATIVE EIGENVALUES.
             EXPLANATIONS ARE SUGGESTED AFTER THE FIRST OCCURRENCE OF THIS MESSAGE.

 CURRENT VALUE OF MONITOR NODE          3 D.O.F.  1 IS  -2.500E-02

  NUMBER OF EQUATIONS =         6     NUMBER OF RHS =    1
  NUMBER OF FLOATING PT. OPERATIONS =  9.10E+01

     CHECK POINT   START OF SOLVER    

     CHECK POINT  END OF SOLVER       

       ELAPSED USER TIME (SEC)      =   0.0000    
       ELAPSED SYSTEM TIME (SEC)    =   0.0000    
       ELAPSED TOTAL CPU TIME (SEC) =   0.0000    
       ELAPSED WALLCLOCK TIME (SEC) =          0
 

 ***WARNING: THE SYSTEM MATRIX HAS 2 NEGATIVE EIGENVALUES.
             EXPLANATIONS ARE SUGGESTED AFTER THE FIRST OCCURRENCE OF THIS MESSAGE.

 CURRENT VALUE OF MONITOR NODE          3 D.O.F.  1 IS  -2.400E-02

  NUMBER OF EQUATIONS =         6     NUMBER OF RHS =    1
  NUMBER OF FLOATING PT. OPERATIONS =  9.10E+01

     CHECK POINT   START OF SOLVER    

     CHECK POINT  END OF SOLVER       

       ELAPSED USER TIME (SEC)      =   0.0000    
       ELAPSED SYSTEM TIME (SEC)    =   0.0000    
       ELAPSED TOTAL CPU TIME (SEC) =   0.0000    
       ELAPSED WALLCLOCK TIME (SEC) =          0
 

 ***WARNING: THE SYSTEM MATRIX HAS 2 NEGATIVE EIGENVALUES.
             EXPLANATIONS ARE SUGGESTED AFTER THE FIRST OCCURRENCE OF THIS MESSAGE.

 CURRENT VALUE OF MONITOR NODE          3 D.O.F.  1 IS  -2.300E-02

  NUMBER OF EQUATIONS =         6     NUMBER OF RHS =    1
  NUMBER OF FLOATING PT. OPERATIONS =  9.10E+01

     CHECK POINT   START OF SOLVER    

     CHECK POINT  END OF SOLVER       

       ELAPSED USER TIME (SEC)      =   0.0000    
       ELAPSED SYSTEM TIME (SEC)    =   0.0000    
       ELAPSED TOTAL CPU TIME (SEC) =   0.0000    
       ELAPSED WALLCLOCK TIME (SEC) =          0
 

 ***WARNING: THE SYSTEM MATRIX HAS 2 NEGATIVE EIGENVALUES.
             EXPLANATIONS ARE SUGGESTED AFTER THE FIRST OCCURRENCE OF THIS MESSAGE.

 CURRENT VALUE OF MONITOR NODE          3 D.O.F.  1 IS  -2.200E-02

  NUMBER OF EQUATIONS =         6     NUMBER OF RHS =    1
  NUMBER OF FLOATING PT. OPERATIONS =  9.10E+01

     CHECK POINT   START OF SOLVER    

     CHECK POINT  END OF SOLVER       

       ELAPSED USER TIME (SEC)      =  0.10000    
       ELAPSED SYSTEM TIME (SEC)    =   0.0000    
       ELAPSED TOTAL CPU TIME (SEC) =  0.10000    
       ELAPSED WALLCLOCK TIME (SEC) =          0
 

 ***WARNING: THE SYSTEM MATRIX HAS 2 NEGATIVE EIGENVALUES.
             EXPLANATIONS ARE SUGGESTED AFTER THE FIRST OCCURRENCE OF THIS MESSAGE.

 CURRENT VALUE OF MONITOR NODE          3 D.O.F.  1 IS  -2.100E-02


  INCREMENT   100 STARTS. ATTEMPT NUMBER  1, TIME INCREMENT  0.200    

  NUMBER OF EQUATIONS =         6     NUMBER OF RHS =    1
  NUMBER OF FLOATING PT. OPERATIONS =  9.10E+01

     CHECK POINT   START OF SOLVER    

     CHECK POINT  END OF SOLVER       

       ELAPSED USER TIME (SEC)      =   0.0000    
       ELAPSED SYSTEM TIME (SEC)    =   0.0000    
       ELAPSED TOTAL CPU TIME (SEC) =   0.0000    
       ELAPSED WALLCLOCK TIME (SEC) =          0
 

 ***WARNING: THE SYSTEM MATRIX HAS 2 NEGATIVE EIGENVALUES.
             EXPLANATIONS ARE SUGGESTED AFTER THE FIRST OCCURRENCE OF THIS MESSAGE.

               CONVERGENCE CHECKS FOR EQUILIBRIUM ITERATION     1


 AVERAGE FORCE                      0.150       TIME AVG. FORCE        8.32    
 LARGEST RESIDUAL FORCE             8.000E-13   AT NODE          2   DOF  1
 LARGEST INCREMENT OF DISP.         1.000E-03   AT NODE          3   DOF  1
 LARGEST CORRECTION TO DISP.       -3.197E-17   AT NODE          2   DOF  1
          THE FORCE     EQUILIBRIUM RESPONSE WAS LINEAR IN THIS INCREMENT

 ITERATION SUMMARY FOR THE INCREMENT:   1 TOTAL ITERATIONS, OF WHICH
   0 ARE SEVERE DISCONTINUITY ITERATIONS AND  1 ARE EQUILIBRIUM ITERATIONS.

 CURRENT VALUE OF MONITOR NODE          3 D.O.F.  1 IS  -2.000E-02

 TIME INCREMENT COMPLETED  0.200    ,  FRACTION OF STEP COMPLETED  0.556    
 STEP TIME COMPLETED        20.0    ,  TOTAL TIME COMPLETED         20.0    

  NUMBER OF EQUATIONS =         6     NUMBER OF RHS =    1
  NUMBER OF FLOATING PT. OPERATIONS =  9.10E+01

     CHECK POINT   START OF SOLVER    

     CHECK POINT  END OF SOLVER       

       ELAPSED USER TIME (SEC)      =   0.0000    
       ELAPSED SYSTEM TIME (SEC)    =   0.0000    
       ELAPSED TOTAL CPU TIME (SEC) =   0.0000    
       ELAPSED WALLCLOCK TIME (SEC) =          0
 

 ***WARNING: THE SYSTEM MATRIX HAS 2 NEGATIVE EIGENVALUES.
             EXPLANATIONS ARE SUGGESTED AFTER THE FIRST OCCURRENCE OF THIS MESSAGE.

 CURRENT VALUE OF MONITOR NODE          3 D.O.F.  1 IS  -1.900E-02

  NUMBER OF EQUATIONS =         6     NUMBER OF RHS =    1
  NUMBER OF FLOATING PT. OPERATIONS =  9.10E+01

     CHECK POINT   START OF SOLVER    

     CHECK POINT  END OF SOLVER       

       ELAPSED USER TIME (SEC)      =   0.0000    
       ELAPSED SYSTEM TIME (SEC)    =   0.0000    
       ELAPSED TOTAL CPU TIME (SEC) =   0.0000    
       ELAPSED WALLCLOCK TIME (SEC) =          0

 CURRENT VALUE OF MONITOR NODE          3 D.O.F.  1 IS  -1.800E-02

  NUMBER OF EQUATIONS =         6     NUMBER OF RHS =    1
  NUMBER OF FLOATING PT. OPERATIONS =  9.10E+01

     CHECK POINT   START OF SOLVER    

     CHECK POINT  END OF SOLVER       

       ELAPSED USER TIME (SEC)      =   0.0000    
       ELAPSED SYSTEM TIME (SEC)    =   0.0000    
       ELAPSED TOTAL CPU TIME (SEC) =   0.0000    
       ELAPSED WALLCLOCK TIME (SEC) =          0

 CURRENT VALUE OF MONITOR NODE          3 D.O.F.  1 IS  -1.700E-02

  NUMBER OF EQUATIONS =         6     NUMBER OF RHS =    1
  NUMBER OF FLOATING PT. OPERATIONS =  9.10E+01

     CHECK POINT   START OF SOLVER    

     CHECK POINT  END OF SOLVER       

       ELAPSED USER TIME (SEC)      =   0.0000    
       ELAPSED SYSTEM TIME (SEC)    =   0.0000    
       ELAPSED TOTAL CPU TIME (SEC) =   0.0000    
       ELAPSED WALLCLOCK TIME (SEC) =          0

 CURRENT VALUE OF MONITOR NODE          3 D.O.F.  1 IS  -1.600E-02

  NUMBER OF EQUATIONS =         6     NUMBER OF RHS =    1
  NUMBER OF FLOATING PT. OPERATIONS =  9.10E+01

     CHECK POINT   START OF SOLVER    

     CHECK POINT  END OF SOLVER       

       ELAPSED USER TIME (SEC)      =   0.0000    
       ELAPSED SYSTEM TIME (SEC)    =   0.0000    
       ELAPSED TOTAL CPU TIME (SEC) =   0.0000    
       ELAPSED WALLCLOCK TIME (SEC) =          0

 CURRENT VALUE OF MONITOR NODE          3 D.O.F.  1 IS  -1.500E-02

  NUMBER OF EQUATIONS =         6     NUMBER OF RHS =    1
  NUMBER OF FLOATING PT. OPERATIONS =  9.10E+01

     CHECK POINT   START OF SOLVER    

     CHECK POINT  END OF SOLVER       

       ELAPSED USER TIME (SEC)      =   0.0000    
       ELAPSED SYSTEM TIME (SEC)    =   0.0000    
       ELAPSED TOTAL CPU TIME (SEC) =   0.0000    
       ELAPSED WALLCLOCK TIME (SEC) =          0

 CURRENT VALUE OF MONITOR NODE          3 D.O.F.  1 IS  -1.400E-02

  NUMBER OF EQUATIONS =         6     NUMBER OF RHS =    1
  NUMBER OF FLOATING PT. OPERATIONS =  9.10E+01

     CHECK POINT   START OF SOLVER    

     CHECK POINT  END OF SOLVER       

       ELAPSED USER TIME (SEC)      =  0.10000    
       ELAPSED SYSTEM TIME (SEC)    =   0.0000    
       ELAPSED TOTAL CPU TIME (SEC) =  0.10000    
       ELAPSED WALLCLOCK TIME (SEC) =          0

 CURRENT VALUE OF MONITOR NODE          3 D.O.F.  1 IS  -1.300E-02

  NUMBER OF EQUATIONS =         6     NUMBER OF RHS =    1
  NUMBER OF FLOATING PT. OPERATIONS =  9.10E+01

     CHECK POINT   START OF SOLVER    

     CHECK POINT  END OF SOLVER       

       ELAPSED USER TIME (SEC)      =   0.0000    
       ELAPSED SYSTEM TIME (SEC)    =   0.0000    
       ELAPSED TOTAL CPU TIME (SEC) =   0.0000    
       ELAPSED WALLCLOCK TIME (SEC) =          0

 CURRENT VALUE OF MONITOR NODE          3 D.O.F.  1 IS  -1.200E-02

  NUMBER OF EQUATIONS =         6     NUMBER OF RHS =    1
  NUMBER OF FLOATING PT. OPERATIONS =  9.10E+01

     CHECK POINT   START OF SOLVER    

     CHECK POINT  END OF SOLVER       

       ELAPSED USER TIME (SEC)      =   0.0000    
       ELAPSED SYSTEM TIME (SEC)    =   0.0000    
       ELAPSED TOTAL CPU TIME (SEC) =   0.0000    
       ELAPSED WALLCLOCK TIME (SEC) =          0

 CURRENT VALUE OF MONITOR NODE          3 D.O.F.  1 IS  -1.100E-02

  NUMBER OF EQUATIONS =         6     NUMBER OF RHS =    1
  NUMBER OF FLOATING PT. OPERATIONS =  9.10E+01

     CHECK POINT   START OF SOLVER    

     CHECK POINT  END OF SOLVER       

       ELAPSED USER TIME (SEC)      =   0.0000    
       ELAPSED SYSTEM TIME (SEC)    =   0.0000    
       ELAPSED TOTAL CPU TIME (SEC) =   0.0000    
       ELAPSED WALLCLOCK TIME (SEC) =          0

 CURRENT VALUE OF MONITOR NODE          3 D.O.F.  1 IS  -1.000E-02

  NUMBER OF EQUATIONS =         6     NUMBER OF RHS =    1
  NUMBER OF FLOATING PT. OPERATIONS =  9.10E+01

     CHECK POINT   START OF SOLVER    

     CHECK POINT  END OF SOLVER       

       ELAPSED USER TIME (SEC)      =   0.0000    
       ELAPSED SYSTEM TIME (SEC)    =   0.0000    
       ELAPSED TOTAL CPU TIME (SEC) =   0.0000    
       ELAPSED WALLCLOCK TIME (SEC) =          0

 CURRENT VALUE OF MONITOR NODE          3 D.O.F.  1 IS  -9.000E-03

  NUMBER OF EQUATIONS =         6     NUMBER OF RHS =    1
  NUMBER OF FLOATING PT. OPERATIONS =  9.10E+01

     CHECK POINT   START OF SOLVER    

     CHECK POINT  END OF SOLVER       

       ELAPSED USER TIME (SEC)      =   0.0000    
       ELAPSED SYSTEM TIME (SEC)    =   0.0000    
       ELAPSED TOTAL CPU TIME (SEC) =   0.0000    
       ELAPSED WALLCLOCK TIME (SEC) =          0

 CURRENT VALUE OF MONITOR NODE          3 D.O.F.  1 IS  -8.000E-03

  NUMBER OF EQUATIONS =         6     NUMBER OF RHS =    1
  NUMBER OF FLOATING PT. OPERATIONS =  9.10E+01

     CHECK POINT   START OF SOLVER    

     CHECK POINT  END OF SOLVER       

       ELAPSED USER TIME (SEC)      =   0.0000    
       ELAPSED SYSTEM TIME (SEC)    =   0.0000    
       ELAPSED TOTAL CPU TIME (SEC) =   0.0000    
       ELAPSED WALLCLOCK TIME (SEC) =          0

 CURRENT VALUE OF MONITOR NODE          3 D.O.F.  1 IS  -7.000E-03

  NUMBER OF EQUATIONS =         6     NUMBER OF RHS =    1
  NUMBER OF FLOATING PT. OPERATIONS =  9.10E+01

     CHECK POINT   START OF SOLVER    

     CHECK POINT  END OF SOLVER       

       ELAPSED USER TIME (SEC)      =   0.0000    
       ELAPSED SYSTEM TIME (SEC)    =   0.0000    
       ELAPSED TOTAL CPU TIME (SEC) =   0.0000    
       ELAPSED WALLCLOCK TIME (SEC) =          0

 CURRENT VALUE OF MONITOR NODE          3 D.O.F.  1 IS  -6.000E-03

  NUMBER OF EQUATIONS =         6     NUMBER OF RHS =    1
  NUMBER OF FLOATING PT. OPERATIONS =  9.10E+01

     CHECK POINT   START OF SOLVER    

     CHECK POINT  END OF SOLVER       

       ELAPSED USER TIME (SEC)      =   0.0000    
       ELAPSED SYSTEM TIME (SEC)    =   0.0000    
       ELAPSED TOTAL CPU TIME (SEC) =   0.0000    
       ELAPSED WALLCLOCK TIME (SEC) =          0

 CURRENT VALUE OF MONITOR NODE          3 D.O.F.  1 IS  -5.000E-03

  NUMBER OF EQUATIONS =         6     NUMBER OF RHS =    1
  NUMBER OF FLOATING PT. OPERATIONS =  9.10E+01

     CHECK POINT   START OF SOLVER    

     CHECK POINT  END OF SOLVER       

       ELAPSED USER TIME (SEC)      =   0.0000    
       ELAPSED SYSTEM TIME (SEC)    =   0.0000    
       ELAPSED TOTAL CPU TIME (SEC) =   0.0000    
       ELAPSED WALLCLOCK TIME (SEC) =          0

 CURRENT VALUE OF MONITOR NODE          3 D.O.F.  1 IS  -4.000E-03

  NUMBER OF EQUATIONS =         6     NUMBER OF RHS =    1
  NUMBER OF FLOATING PT. OPERATIONS =  9.10E+01

     CHECK POINT   START OF SOLVER    

     CHECK POINT  END OF SOLVER       

       ELAPSED USER TIME (SEC)      =   0.0000    
       ELAPSED SYSTEM TIME (SEC)    =   0.0000    
       ELAPSED TOTAL CPU TIME (SEC) =   0.0000    
       ELAPSED WALLCLOCK TIME (SEC) =          0

 CURRENT VALUE OF MONITOR NODE          3 D.O.F.  1 IS  -3.000E-03

  NUMBER OF EQUATIONS =         6     NUMBER OF RHS =    1
  NUMBER OF FLOATING PT. OPERATIONS =  9.10E+01

     CHECK POINT   START OF SOLVER    

     CHECK POINT  END OF SOLVER       

       ELAPSED USER TIME (SEC)      =   0.0000    
       ELAPSED SYSTEM TIME (SEC)    =   0.0000    
       ELAPSED TOTAL CPU TIME (SEC) =   0.0000    
       ELAPSED WALLCLOCK TIME (SEC) =          0

 CURRENT VALUE OF MONITOR NODE          3 D.O.F.  1 IS  -2.000E-03

  NUMBER OF EQUATIONS =         6     NUMBER OF RHS =    1
  NUMBER OF FLOATING PT. OPERATIONS =  9.10E+01

     CHECK POINT   START OF SOLVER    

     CHECK POINT  END OF SOLVER       

       ELAPSED USER TIME (SEC)      =   0.0000    
       ELAPSED SYSTEM TIME (SEC)    =   0.0000    
       ELAPSED TOTAL CPU TIME (SEC) =   0.0000    
       ELAPSED WALLCLOCK TIME (SEC) =          0

 CURRENT VALUE OF MONITOR NODE          3 D.O.F.  1 IS  -1.000E-03

  NUMBER OF EQUATIONS =         6     NUMBER OF RHS =    1
  NUMBER OF FLOATING PT. OPERATIONS =  9.10E+01

     CHECK POINT   START OF SOLVER    

     CHECK POINT  END OF SOLVER       

       ELAPSED USER TIME (SEC)      =   0.0000    
       ELAPSED SYSTEM TIME (SEC)    =   0.0000    
       ELAPSED TOTAL CPU TIME (SEC) =   0.0000    
       ELAPSED WALLCLOCK TIME (SEC) =          0

 CURRENT VALUE OF MONITOR NODE          3 D.O.F.  1 IS  -2.665E-16

  NUMBER OF EQUATIONS =         6     NUMBER OF RHS =    1
  NUMBER OF FLOATING PT. OPERATIONS =  9.10E+01

     CHECK POINT   START OF SOLVER    

     CHECK POINT  END OF SOLVER       

       ELAPSED USER TIME (SEC)      =   0.0000    
       ELAPSED SYSTEM TIME (SEC)    =   0.0000    
       ELAPSED TOTAL CPU TIME (SEC) =   0.0000    
       ELAPSED WALLCLOCK TIME (SEC) =          0

 CURRENT VALUE OF MONITOR NODE          3 D.O.F.  1 IS   1.000E-03

  NUMBER OF EQUATIONS =         6     NUMBER OF RHS =    1
  NUMBER OF FLOATING PT. OPERATIONS =  9.10E+01

     CHECK POINT   START OF SOLVER    

     CHECK POINT  END OF SOLVER       

       ELAPSED USER TIME (SEC)      =   0.0000    
       ELAPSED SYSTEM TIME (SEC)    =   0.0000    
       ELAPSED TOTAL CPU TIME (SEC) =   0.0000    
       ELAPSED WALLCLOCK TIME (SEC) =          0

 CURRENT VALUE OF MONITOR NODE          3 D.O.F.  1 IS   2.000E-03

  NUMBER OF EQUATIONS =         6     NUMBER OF RHS =    1
  NUMBER OF FLOATING PT. OPERATIONS =  9.10E+01

     CHECK POINT   START OF SOLVER    

     CHECK POINT  END OF SOLVER       

       ELAPSED USER TIME (SEC)      =  0.10000    
       ELAPSED SYSTEM TIME (SEC)    =   0.0000    
       ELAPSED TOTAL CPU TIME (SEC) =  0.10000    
       ELAPSED WALLCLOCK TIME (SEC) =          0

 CURRENT VALUE OF MONITOR NODE          3 D.O.F.  1 IS   3.000E-03

  NUMBER OF EQUATIONS =         6     NUMBER OF RHS =    1
  NUMBER OF FLOATING PT. OPERATIONS =  9.10E+01

     CHECK POINT   START OF SOLVER    

     CHECK POINT  END OF SOLVER       

       ELAPSED USER TIME (SEC)      =   0.0000    
       ELAPSED SYSTEM TIME (SEC)    =   0.0000    
       ELAPSED TOTAL CPU TIME (SEC) =   0.0000    
       ELAPSED WALLCLOCK TIME (SEC) =          0

 CURRENT VALUE OF MONITOR NODE          3 D.O.F.  1 IS   4.000E-03

  NUMBER OF EQUATIONS =         6     NUMBER OF RHS =    1
  NUMBER OF FLOATING PT. OPERATIONS =  9.10E+01

     CHECK POINT   START OF SOLVER    

     CHECK POINT  END OF SOLVER       

       ELAPSED USER TIME (SEC)      =   0.0000    
       ELAPSED SYSTEM TIME (SEC)    =   0.0000    
       ELAPSED TOTAL CPU TIME (SEC) =   0.0000    
       ELAPSED WALLCLOCK TIME (SEC) =          0

 CURRENT VALUE OF MONITOR NODE          3 D.O.F.  1 IS   5.000E-03

  NUMBER OF EQUATIONS =         6     NUMBER OF RHS =    1
  NUMBER OF FLOATING PT. OPERATIONS =  9.10E+01

     CHECK POINT   START OF SOLVER    

     CHECK POINT  END OF SOLVER       

       ELAPSED USER TIME (SEC)      =   0.0000    
       ELAPSED SYSTEM TIME (SEC)    =   0.0000    
       ELAPSED TOTAL CPU TIME (SEC) =   0.0000    
       ELAPSED WALLCLOCK TIME (SEC) =          0

 CURRENT VALUE OF MONITOR NODE          3 D.O.F.  1 IS   6.000E-03

  NUMBER OF EQUATIONS =         6     NUMBER OF RHS =    1
  NUMBER OF FLOATING PT. OPERATIONS =  9.10E+01

     CHECK POINT   START OF SOLVER    

     CHECK POINT  END OF SOLVER       

       ELAPSED USER TIME (SEC)      =   0.0000    
       ELAPSED SYSTEM TIME (SEC)    =   0.0000    
       ELAPSED TOTAL CPU TIME (SEC) =   0.0000    
       ELAPSED WALLCLOCK TIME (SEC) =          0

 CURRENT VALUE OF MONITOR NODE          3 D.O.F.  1 IS   7.000E-03

  NUMBER OF EQUATIONS =         6     NUMBER OF RHS =    1
  NUMBER OF FLOATING PT. OPERATIONS =  9.10E+01

     CHECK POINT   START OF SOLVER    

     CHECK POINT  END OF SOLVER       

       ELAPSED USER TIME (SEC)      =   0.0000    
       ELAPSED SYSTEM TIME (SEC)    =   0.0000    
       ELAPSED TOTAL CPU TIME (SEC) =   0.0000    
       ELAPSED WALLCLOCK TIME (SEC) =          0

 CURRENT VALUE OF MONITOR NODE          3 D.O.F.  1 IS   8.000E-03

  NUMBER OF EQUATIONS =         6     NUMBER OF RHS =    1
  NUMBER OF FLOATING PT. OPERATIONS =  9.10E+01

     CHECK POINT   START OF SOLVER    

     CHECK POINT  END OF SOLVER       

       ELAPSED USER TIME (SEC)      =   0.0000    
       ELAPSED SYSTEM TIME (SEC)    =   0.0000    
       ELAPSED TOTAL CPU TIME (SEC) =   0.0000    
       ELAPSED WALLCLOCK TIME (SEC) =          0

 CURRENT VALUE OF MONITOR NODE          3 D.O.F.  1 IS   9.000E-03

  NUMBER OF EQUATIONS =         6     NUMBER OF RHS =    1
  NUMBER OF FLOATING PT. OPERATIONS =  9.10E+01

     CHECK POINT   START OF SOLVER    

     CHECK POINT  END OF SOLVER       

       ELAPSED USER TIME (SEC)      =   0.0000    
       ELAPSED SYSTEM TIME (SEC)    =   0.0000    
       ELAPSED TOTAL CPU TIME (SEC) =   0.0000    
       ELAPSED WALLCLOCK TIME (SEC) =          0

 CURRENT VALUE OF MONITOR NODE          3 D.O.F.  1 IS   1.000E-02

  NUMBER OF EQUATIONS =         6     NUMBER OF RHS =    1
  NUMBER OF FLOATING PT. OPERATIONS =  9.10E+01

     CHECK POINT   START OF SOLVER    

     CHECK POINT  END OF SOLVER       

       ELAPSED USER TIME (SEC)      =   0.0000    
       ELAPSED SYSTEM TIME (SEC)    =   0.0000    
       ELAPSED TOTAL CPU TIME (SEC) =   0.0000    
       ELAPSED WALLCLOCK TIME (SEC) =          0

 CURRENT VALUE OF MONITOR NODE          3 D.O.F.  1 IS   1.100E-02

  NUMBER OF EQUATIONS =         6     NUMBER OF RHS =    1
  NUMBER OF FLOATING PT. OPERATIONS =  9.10E+01

     CHECK POINT   START OF SOLVER    

     CHECK POINT  END OF SOLVER       

       ELAPSED USER TIME (SEC)      =   0.0000    
       ELAPSED SYSTEM TIME (SEC)    =   0.0000    
       ELAPSED TOTAL CPU TIME (SEC) =   0.0000    
       ELAPSED WALLCLOCK TIME (SEC) =          0

 CURRENT VALUE OF MONITOR NODE          3 D.O.F.  1 IS   1.200E-02

  NUMBER OF EQUATIONS =         6     NUMBER OF RHS =    1
  NUMBER OF FLOATING PT. OPERATIONS =  9.10E+01

     CHECK POINT   START OF SOLVER    

     CHECK POINT  END OF SOLVER       

       ELAPSED USER TIME (SEC)      =   0.0000    
       ELAPSED SYSTEM TIME (SEC)    =   0.0000    
       ELAPSED TOTAL CPU TIME (SEC) =   0.0000    
       ELAPSED WALLCLOCK TIME (SEC) =          0

 CURRENT VALUE OF MONITOR NODE          3 D.O.F.  1 IS   1.300E-02

  NUMBER OF EQUATIONS =         6     NUMBER OF RHS =    1
  NUMBER OF FLOATING PT. OPERATIONS =  9.10E+01

     CHECK POINT   START OF SOLVER    

     CHECK POINT  END OF SOLVER       

       ELAPSED USER TIME (SEC)      =   0.0000    
       ELAPSED SYSTEM TIME (SEC)    =   0.0000    
       ELAPSED TOTAL CPU TIME (SEC) =   0.0000    
       ELAPSED WALLCLOCK TIME (SEC) =          0

 CURRENT VALUE OF MONITOR NODE          3 D.O.F.  1 IS   1.400E-02

  NUMBER OF EQUATIONS =         6     NUMBER OF RHS =    1
  NUMBER OF FLOATING PT. OPERATIONS =  9.10E+01

     CHECK POINT   START OF SOLVER    

     CHECK POINT  END OF SOLVER       

       ELAPSED USER TIME (SEC)      =   0.0000    
       ELAPSED SYSTEM TIME (SEC)    =   0.0000    
       ELAPSED TOTAL CPU TIME (SEC) =   0.0000    
       ELAPSED WALLCLOCK TIME (SEC) =          0

 CURRENT VALUE OF MONITOR NODE          3 D.O.F.  1 IS   1.500E-02

  NUMBER OF EQUATIONS =         6     NUMBER OF RHS =    1
  NUMBER OF FLOATING PT. OPERATIONS =  9.10E+01

     CHECK POINT   START OF SOLVER    

     CHECK POINT  END OF SOLVER       

       ELAPSED USER TIME (SEC)      =   0.0000    
       ELAPSED SYSTEM TIME (SEC)    =   0.0000    
       ELAPSED TOTAL CPU TIME (SEC) =   0.0000    
       ELAPSED WALLCLOCK TIME (SEC) =          0

 CURRENT VALUE OF MONITOR NODE          3 D.O.F.  1 IS   1.600E-02

  NUMBER OF EQUATIONS =         6     NUMBER OF RHS =    1
  NUMBER OF FLOATING PT. OPERATIONS =  9.10E+01

     CHECK POINT   START OF SOLVER    

     CHECK POINT  END OF SOLVER       

       ELAPSED USER TIME (SEC)      =   0.0000    
       ELAPSED SYSTEM TIME (SEC)    =   0.0000    
       ELAPSED TOTAL CPU TIME (SEC) =   0.0000    
       ELAPSED WALLCLOCK TIME (SEC) =          0

 CURRENT VALUE OF MONITOR NODE          3 D.O.F.  1 IS   1.700E-02

  NUMBER OF EQUATIONS =         6     NUMBER OF RHS =    1
  NUMBER OF FLOATING PT. OPERATIONS =  9.10E+01

     CHECK POINT   START OF SOLVER    

     CHECK POINT  END OF SOLVER       

       ELAPSED USER TIME (SEC)      =   0.0000    
       ELAPSED SYSTEM TIME (SEC)    =   0.0000    
       ELAPSED TOTAL CPU TIME (SEC) =   0.0000    
       ELAPSED WALLCLOCK TIME (SEC) =          0

 CURRENT VALUE OF MONITOR NODE          3 D.O.F.  1 IS   1.800E-02

  NUMBER OF EQUATIONS =         6     NUMBER OF RHS =    1
  NUMBER OF FLOATING PT. OPERATIONS =  9.10E+01

     CHECK POINT   START OF SOLVER    

     CHECK POINT  END OF SOLVER       

       ELAPSED USER TIME (SEC)      =   0.0000    
       ELAPSED SYSTEM TIME (SEC)    =   0.0000    
       ELAPSED TOTAL CPU TIME (SEC) =   0.0000    
       ELAPSED WALLCLOCK TIME (SEC) =          0

 CURRENT VALUE OF MONITOR NODE          3 D.O.F.  1 IS   1.900E-02

  NUMBER OF EQUATIONS =         6     NUMBER OF RHS =    1
  NUMBER OF FLOATING PT. OPERATIONS =  9.10E+01

     CHECK POINT   START OF SOLVER    

     CHECK POINT  END OF SOLVER       

       ELAPSED USER TIME (SEC)      =   0.0000    
       ELAPSED SYSTEM TIME (SEC)    =   0.0000    
[...]
       ELAPSED SYSTEM TIME (SEC)    =   0.0000    
       ELAPSED TOTAL CPU TIME (SEC) =   0.0000    
       ELAPSED WALLCLOCK TIME (SEC) =          0

 CURRENT VALUE OF MONITOR NODE          3 D.O.F.  1 IS   2.800E-02

  NUMBER OF EQUATIONS =         6     NUMBER OF RHS =    1
  NUMBER OF FLOATING PT. OPERATIONS =  9.10E+01

     CHECK POINT   START OF SOLVER    

     CHECK POINT  END OF SOLVER       

       ELAPSED USER TIME (SEC)      =   0.0000    
       ELAPSED SYSTEM TIME (SEC)    =   0.0000    
       ELAPSED TOTAL CPU TIME (SEC) =   0.0000    
       ELAPSED WALLCLOCK TIME (SEC) =          0

 CURRENT VALUE OF MONITOR NODE          3 D.O.F.  1 IS   2.900E-02

  NUMBER OF EQUATIONS =         6     NUMBER OF RHS =    1
  NUMBER OF FLOATING PT. OPERATIONS =  9.10E+01

     CHECK POINT   START OF SOLVER    

     CHECK POINT  END OF SOLVER       

       ELAPSED USER TIME (SEC)      =   0.0000    
       ELAPSED SYSTEM TIME (SEC)    =   0.0000    
       ELAPSED TOTAL CPU TIME (SEC) =   0.0000    
       ELAPSED WALLCLOCK TIME (SEC) =          0

 CURRENT VALUE OF MONITOR NODE          3 D.O.F.  1 IS   3.000E-02

  NUMBER OF EQUATIONS =         6     NUMBER OF RHS =    1
  NUMBER OF FLOATING PT. OPERATIONS =  9.10E+01

     CHECK POINT   START OF SOLVER    

     CHECK POINT  END OF SOLVER       

       ELAPSED USER TIME (SEC)      =   0.0000    
       ELAPSED SYSTEM TIME (SEC)    =   0.0000    
       ELAPSED TOTAL CPU TIME (SEC) =   0.0000    
       ELAPSED WALLCLOCK TIME (SEC) =          0

 CURRENT VALUE OF MONITOR NODE          3 D.O.F.  1 IS   2.900E-02

  NUMBER OF EQUATIONS =         6     NUMBER OF RHS =    1
  NUMBER OF FLOATING PT. OPERATIONS =  9.10E+01

     CHECK POINT   START OF SOLVER    

     CHECK POINT  END OF SOLVER       

       ELAPSED USER TIME (SEC)      =   0.0000    
       ELAPSED SYSTEM TIME (SEC)    =   0.0000    
       ELAPSED TOTAL CPU TIME (SEC) =   0.0000    
       ELAPSED WALLCLOCK TIME (SEC) =          0

 CURRENT VALUE OF MONITOR NODE          3 D.O.F.  1 IS   2.800E-02

  NUMBER OF EQUATIONS =         6     NUMBER OF RHS =    1
  NUMBER OF FLOATING PT. OPERATIONS =  9.10E+01

     CHECK POINT   START OF SOLVER    

     CHECK POINT  END OF SOLVER       

       ELAPSED USER TIME (SEC)      =   0.0000    
       ELAPSED SYSTEM TIME (SEC)    =   0.0000    
       ELAPSED TOTAL CPU TIME (SEC) =   0.0000    
       ELAPSED WALLCLOCK TIME (SEC) =          0

 CURRENT VALUE OF MONITOR NODE          3 D.O.F.  1 IS   2.700E-02

  NUMBER OF EQUATIONS =         6     NUMBER OF RHS =    1
  NUMBER OF FLOATING PT. OPERATIONS =  9.10E+01

     CHECK POINT   START OF SOLVER    

     CHECK POINT  END OF SOLVER       

       ELAPSED USER TIME (SEC)      =   0.0000    
       ELAPSED SYSTEM TIME (SEC)    =   0.0000    
       ELAPSED TOTAL CPU TIME (SEC) =   0.0000    
       ELAPSED WALLCLOCK TIME (SEC) =          0

 CURRENT VALUE OF MONITOR NODE          3 D.O.F.  1 IS   2.600E-02

  NUMBER OF EQUATIONS =         6     NUMBER OF RHS =    1
  NUMBER OF FLOATING PT. OPERATIONS =  9.10E+01

     CHECK POINT   START OF SOLVER    

     CHECK POINT  END OF SOLVER       

       ELAPSED USER TIME (SEC)      =   0.0000    
       ELAPSED SYSTEM TIME (SEC)    =   0.0000    
       ELAPSED TOTAL CPU TIME (SEC) =   0.0000    
       ELAPSED WALLCLOCK TIME (SEC) =          0

 CURRENT VALUE OF MONITOR NODE          3 D.O.F.  1 IS   2.500E-02

  NUMBER OF EQUATIONS =         6     NUMBER OF RHS =    1
  NUMBER OF FLOATING PT. OPERATIONS =  9.10E+01

     CHECK POINT   START OF SOLVER    

     CHECK POINT  END OF SOLVER       

       ELAPSED USER TIME (SEC)      =   0.0000    
       ELAPSED SYSTEM TIME (SEC)    =   0.0000    
       ELAPSED TOTAL CPU TIME (SEC) =   0.0000    
       ELAPSED WALLCLOCK TIME (SEC) =          0

 CURRENT VALUE OF MONITOR NODE          3 D.O.F.  1 IS   2.400E-02

  NUMBER OF EQUATIONS =         6     NUMBER OF RHS =    1
  NUMBER OF FLOATING PT. OPERATIONS =  9.10E+01

     CHECK POINT   START OF SOLVER    

     CHECK POINT  END OF SOLVER       

       ELAPSED USER TIME (SEC)      =   0.0000    
       ELAPSED SYSTEM TIME (SEC)    =   0.0000    
       ELAPSED TOTAL CPU TIME (SEC) =   0.0000    
       ELAPSED WALLCLOCK TIME (SEC) =          0

 CURRENT VALUE OF MONITOR NODE          3 D.O.F.  1 IS   2.300E-02

  NUMBER OF EQUATIONS =         6     NUMBER OF RHS =    1
  NUMBER OF FLOATING PT. OPERATIONS =  9.10E+01

     CHECK POINT   START OF SOLVER    

     CHECK POINT  END OF SOLVER       

       ELAPSED USER TIME (SEC)      =   0.0000    
       ELAPSED SYSTEM TIME (SEC)    =   0.0000    
       ELAPSED TOTAL CPU TIME (SEC) =   0.0000    
       ELAPSED WALLCLOCK TIME (SEC) =          0

 CURRENT VALUE OF MONITOR NODE          3 D.O.F.  1 IS   2.200E-02

  NUMBER OF EQUATIONS =         6     NUMBER OF RHS =    1
  NUMBER OF FLOATING PT. OPERATIONS =  9.10E+01

     CHECK POINT   START OF SOLVER    

     CHECK POINT  END OF SOLVER       

       ELAPSED USER TIME (SEC)      =   0.0000    
       ELAPSED SYSTEM TIME (SEC)    =   0.0000    
       ELAPSED TOTAL CPU TIME (SEC) =   0.0000    
       ELAPSED WALLCLOCK TIME (SEC) =          0

 CURRENT VALUE OF MONITOR NODE          3 D.O.F.  1 IS   2.100E-02

  NUMBER OF EQUATIONS =         6     NUMBER OF RHS =    1
  NUMBER OF FLOATING PT. OPERATIONS =  9.10E+01

     CHECK POINT   START OF SOLVER    

     CHECK POINT  END OF SOLVER       

       ELAPSED USER TIME (SEC)      =   0.0000    
       ELAPSED SYSTEM TIME (SEC)    =   0.0000    
       ELAPSED TOTAL CPU TIME (SEC) =   0.0000    
       ELAPSED WALLCLOCK TIME (SEC) =          0

 CURRENT VALUE OF MONITOR NODE          3 D.O.F.  1 IS   2.000E-02

  NUMBER OF EQUATIONS =         6     NUMBER OF RHS =    1
  NUMBER OF FLOATING PT. OPERATIONS =  9.10E+01

     CHECK POINT   START OF SOLVER    

     CHECK POINT  END OF SOLVER       

       ELAPSED USER TIME (SEC)      =   0.0000    
       ELAPSED SYSTEM TIME (SEC)    =   0.0000    
       ELAPSED TOTAL CPU TIME (SEC) =   0.0000    
       ELAPSED WALLCLOCK TIME (SEC) =          0

 CURRENT VALUE OF MONITOR NODE          3 D.O.F.  1 IS   1.900E-02

  NUMBER OF EQUATIONS =         6     NUMBER OF RHS =    1
  NUMBER OF FLOATING PT. OPERATIONS =  9.10E+01

     CHECK POINT   START OF SOLVER    

     CHECK POINT  END OF SOLVER       

       ELAPSED USER TIME (SEC)      =   0.0000    
       ELAPSED SYSTEM TIME (SEC)    =   0.0000    
       ELAPSED TOTAL CPU TIME (SEC) =   0.0000    
       ELAPSED WALLCLOCK TIME (SEC) =          0

 CURRENT VALUE OF MONITOR NODE          3 D.O.F.  1 IS   1.800E-02

  NUMBER OF EQUATIONS =         6     NUMBER OF RHS =    1
  NUMBER OF FLOATING PT. OPERATIONS =  9.10E+01

     CHECK POINT   START OF SOLVER    

     CHECK POINT  END OF SOLVER       

       ELAPSED USER TIME (SEC)      =   0.0000    
       ELAPSED SYSTEM TIME (SEC)    =   0.0000    
       ELAPSED TOTAL CPU TIME (SEC) =   0.0000    
       ELAPSED WALLCLOCK TIME (SEC) =          0

 CURRENT VALUE OF MONITOR NODE          3 D.O.F.  1 IS   1.700E-02

  NUMBER OF EQUATIONS =         6     NUMBER OF RHS =    1
  NUMBER OF FLOATING PT. OPERATIONS =  9.10E+01

     CHECK POINT   START OF SOLVER    

     CHECK POINT  END OF SOLVER       

       ELAPSED USER TIME (SEC)      =   0.0000    
       ELAPSED SYSTEM TIME (SEC)    =   0.0000    
       ELAPSED TOTAL CPU TIME (SEC) =   0.0000    
       ELAPSED WALLCLOCK TIME (SEC) =          0
 

 ***WARNING: THE SYSTEM MATRIX HAS 2 NEGATIVE EIGENVALUES.
             EXPLANATIONS ARE SUGGESTED AFTER THE FIRST OCCURRENCE OF THIS MESSAGE.

 CURRENT VALUE OF MONITOR NODE          3 D.O.F.  1 IS   1.600E-02

  NUMBER OF EQUATIONS =         6     NUMBER OF RHS =    1
  NUMBER OF FLOATING PT. OPERATIONS =  9.10E+01

     CHECK POINT   START OF SOLVER    

     CHECK POINT  END OF SOLVER       

       ELAPSED USER TIME (SEC)      =   0.0000    
       ELAPSED SYSTEM TIME (SEC)    =   0.0000    
       ELAPSED TOTAL CPU TIME (SEC) =   0.0000    
       ELAPSED WALLCLOCK TIME (SEC) =          0
 

 ***WARNING: THE SYSTEM MATRIX HAS 2 NEGATIVE EIGENVALUES.
             EXPLANATIONS ARE SUGGESTED AFTER THE FIRST OCCURRENCE OF THIS MESSAGE.

 CURRENT VALUE OF MONITOR NODE          3 D.O.F.  1 IS   1.500E-02

  NUMBER OF EQUATIONS =         6     NUMBER OF RHS =    1
  NUMBER OF FLOATING PT. OPERATIONS =  9.10E+01

     CHECK POINT   START OF SOLVER    

     CHECK POINT  END OF SOLVER       

       ELAPSED USER TIME (SEC)      =   0.0000    
       ELAPSED SYSTEM TIME (SEC)    =   0.0000    
       ELAPSED TOTAL CPU TIME (SEC) =   0.0000    
       ELAPSED WALLCLOCK TIME (SEC) =          0
 

 ***WARNING: THE SYSTEM MATRIX HAS 2 NEGATIVE EIGENVALUES.
             EXPLANATIONS ARE SUGGESTED AFTER THE FIRST OCCURRENCE OF THIS MESSAGE.

 CURRENT VALUE OF MONITOR NODE          3 D.O.F.  1 IS   1.400E-02

  NUMBER OF EQUATIONS =         6     NUMBER OF RHS =    1
  NUMBER OF FLOATING PT. OPERATIONS =  9.10E+01

     CHECK POINT   START OF SOLVER    

     CHECK POINT  END OF SOLVER       

       ELAPSED USER TIME (SEC)      =   0.0000    
       ELAPSED SYSTEM TIME (SEC)    =   0.0000    
       ELAPSED TOTAL CPU TIME (SEC) =   0.0000    
       ELAPSED WALLCLOCK TIME (SEC) =          0
 

 ***WARNING: THE SYSTEM MATRIX HAS 2 NEGATIVE EIGENVALUES.
             EXPLANATIONS ARE SUGGESTED AFTER THE FIRST OCCURRENCE OF THIS MESSAGE.

 CURRENT VALUE OF MONITOR NODE          3 D.O.F.  1 IS   1.300E-02

  NUMBER OF EQUATIONS =         6     NUMBER OF RHS =    1
  NUMBER OF FLOATING PT. OPERATIONS =  9.10E+01

     CHECK POINT   START OF SOLVER    

     CHECK POINT  END OF SOLVER       

       ELAPSED USER TIME (SEC)      =   0.0000    
       ELAPSED SYSTEM TIME (SEC)    =   0.0000    
       ELAPSED TOTAL CPU TIME (SEC) =   0.0000    
       ELAPSED WALLCLOCK TIME (SEC) =          0
 

 ***WARNING: THE SYSTEM MATRIX HAS 2 NEGATIVE EIGENVALUES.
             EXPLANATIONS ARE SUGGESTED AFTER THE FIRST OCCURRENCE OF THIS MESSAGE.

 CURRENT VALUE OF MONITOR NODE          3 D.O.F.  1 IS   1.200E-02

  NUMBER OF EQUATIONS =         6     NUMBER OF RHS =    1
  NUMBER OF FLOATING PT. OPERATIONS =  9.10E+01

     CHECK POINT   START OF SOLVER    

     CHECK POINT  END OF SOLVER       

       ELAPSED USER TIME (SEC)      =   0.0000    
       ELAPSED SYSTEM TIME (SEC)    =   0.0000    
       ELAPSED TOTAL CPU TIME (SEC) =   0.0000    
       ELAPSED WALLCLOCK TIME (SEC) =          0
 

 ***WARNING: THE SYSTEM MATRIX HAS 2 NEGATIVE EIGENVALUES.
             EXPLANATIONS ARE SUGGESTED AFTER THE FIRST OCCURRENCE OF THIS MESSAGE.

 CURRENT VALUE OF MONITOR NODE          3 D.O.F.  1 IS   1.100E-02

  NUMBER OF EQUATIONS =         6     NUMBER OF RHS =    1
  NUMBER OF FLOATING PT. OPERATIONS =  9.10E+01

     CHECK POINT   START OF SOLVER    

     CHECK POINT  END OF SOLVER       

       ELAPSED USER TIME (SEC)      =   0.0000    
       ELAPSED SYSTEM TIME (SEC)    =   0.0000    
       ELAPSED TOTAL CPU TIME (SEC) =   0.0000    
       ELAPSED WALLCLOCK TIME (SEC) =          0
 

 ***WARNING: THE SYSTEM MATRIX HAS 2 NEGATIVE EIGENVALUES.
             EXPLANATIONS ARE SUGGESTED AFTER THE FIRST OCCURRENCE OF THIS MESSAGE.

 CURRENT VALUE OF MONITOR NODE          3 D.O.F.  1 IS   1.000E-02

  NUMBER OF EQUATIONS =         6     NUMBER OF RHS =    1
  NUMBER OF FLOATING PT. OPERATIONS =  9.10E+01

     CHECK POINT   START OF SOLVER    

     CHECK POINT  END OF SOLVER       

       ELAPSED USER TIME (SEC)      =   0.0000    
       ELAPSED SYSTEM TIME (SEC)    =   0.0000    
       ELAPSED TOTAL CPU TIME (SEC) =   0.0000    
       ELAPSED WALLCLOCK TIME (SEC) =          0
 

 ***WARNING: THE SYSTEM MATRIX HAS 2 NEGATIVE EIGENVALUES.
             EXPLANATIONS ARE SUGGESTED AFTER THE FIRST OCCURRENCE OF THIS MESSAGE.

 CURRENT VALUE OF MONITOR NODE          3 D.O.F.  1 IS   9.000E-03

  NUMBER OF EQUATIONS =         6     NUMBER OF RHS =    1
  NUMBER OF FLOATING PT. OPERATIONS =  9.10E+01

     CHECK POINT   START OF SOLVER    

     CHECK POINT  END OF SOLVER       

       ELAPSED USER TIME (SEC)      =   0.0000    
       ELAPSED SYSTEM TIME (SEC)    =   0.0000    
       ELAPSED TOTAL CPU TIME (SEC) =   0.0000    
       ELAPSED WALLCLOCK TIME (SEC) =          0
 

 ***WARNING: THE SYSTEM MATRIX HAS 2 NEGATIVE EIGENVALUES.
             EXPLANATIONS ARE SUGGESTED AFTER THE FIRST OCCURRENCE OF THIS MESSAGE.

 CURRENT VALUE OF MONITOR NODE          3 D.O.F.  1 IS   8.000E-03

  NUMBER OF EQUATIONS =         6     NUMBER OF RHS =    1
  NUMBER OF FLOATING PT. OPERATIONS =  9.10E+01

     CHECK POINT   START OF SOLVER    

     CHECK POINT  END OF SOLVER       

       ELAPSED USER TIME (SEC)      =   0.0000    
       ELAPSED SYSTEM TIME (SEC)    =   0.0000    
       ELAPSED TOTAL CPU TIME (SEC) =   0.0000    
       ELAPSED WALLCLOCK TIME (SEC) =          0
 

 ***WARNING: THE SYSTEM MATRIX HAS 2 NEGATIVE EIGENVALUES.
             EXPLANATIONS ARE SUGGESTED AFTER THE FIRST OCCURRENCE OF THIS MESSAGE.

 CURRENT VALUE OF MONITOR NODE          3 D.O.F.  1 IS   7.000E-03

  NUMBER OF EQUATIONS =         6     NUMBER OF RHS =    1
  NUMBER OF FLOATING PT. OPERATIONS =  9.10E+01

     CHECK POINT   START OF SOLVER    

     CHECK POINT  END OF SOLVER       

       ELAPSED USER TIME (SEC)      =   0.0000    
       ELAPSED SYSTEM TIME (SEC)    =   0.0000    
       ELAPSED TOTAL CPU TIME (SEC) =   0.0000    
       ELAPSED WALLCLOCK TIME (SEC) =          0
 

 ***WARNING: THE SYSTEM MATRIX HAS 2 NEGATIVE EIGENVALUES.
             EXPLANATIONS ARE SUGGESTED AFTER THE FIRST OCCURRENCE OF THIS MESSAGE.

 CURRENT VALUE OF MONITOR NODE          3 D.O.F.  1 IS   6.000E-03

  NUMBER OF EQUATIONS =         6     NUMBER OF RHS =    1
  NUMBER OF FLOATING PT. OPERATIONS =  9.10E+01

     CHECK POINT   START OF SOLVER    

     CHECK POINT  END OF SOLVER       

       ELAPSED USER TIME (SEC)      =   0.0000    
       ELAPSED SYSTEM TIME (SEC)    =   0.0000    
       ELAPSED TOTAL CPU TIME (SEC) =   0.0000    
       ELAPSED WALLCLOCK TIME (SEC) =          0
 

 ***WARNING: THE SYSTEM MATRIX HAS 2 NEGATIVE EIGENVALUES.
             EXPLANATIONS ARE SUGGESTED AFTER THE FIRST OCCURRENCE OF THIS MESSAGE.

 CURRENT VALUE OF MONITOR NODE          3 D.O.F.  1 IS   5.000E-03

  NUMBER OF EQUATIONS =         6     NUMBER OF RHS =    1
  NUMBER OF FLOATING PT. OPERATIONS =  9.10E+01

     CHECK POINT   START OF SOLVER    

     CHECK POINT  END OF SOLVER       

       ELAPSED USER TIME (SEC)      =   0.0000    
       ELAPSED SYSTEM TIME (SEC)    =   0.0000    
       ELAPSED TOTAL CPU TIME (SEC) =   0.0000    
       ELAPSED WALLCLOCK TIME (SEC) =          0
 

 ***WARNING: THE SYSTEM MATRIX HAS 2 NEGATIVE EIGENVALUES.
             EXPLANATIONS ARE SUGGESTED AFTER THE FIRST OCCURRENCE OF THIS MESSAGE.

 CURRENT VALUE OF MONITOR NODE          3 D.O.F.  1 IS   4.000E-03

  NUMBER OF EQUATIONS =         6     NUMBER OF RHS =    1
  NUMBER OF FLOATING PT. OPERATIONS =  9.10E+01

     CHECK POINT   START OF SOLVER    

     CHECK POINT  END OF SOLVER       

       ELAPSED USER TIME (SEC)      =   0.0000    
       ELAPSED SYSTEM TIME (SEC)    =   0.0000    
       ELAPSED TOTAL CPU TIME (SEC) =   0.0000    
       ELAPSED WALLCLOCK TIME (SEC) =          0
 

 ***WARNING: THE SYSTEM MATRIX HAS 2 NEGATIVE EIGENVALUES.
             EXPLANATIONS ARE SUGGESTED AFTER THE FIRST OCCURRENCE OF THIS MESSAGE.

 CURRENT VALUE OF MONITOR NODE          3 D.O.F.  1 IS   3.000E-03

  NUMBER OF EQUATIONS =         6     NUMBER OF RHS =    1
  NUMBER OF FLOATING PT. OPERATIONS =  9.10E+01

     CHECK POINT   START OF SOLVER    

     CHECK POINT  END OF SOLVER       

       ELAPSED USER TIME (SEC)      =   0.0000    
       ELAPSED SYSTEM TIME (SEC)    =   0.0000    
       ELAPSED TOTAL CPU TIME (SEC) =   0.0000    
       ELAPSED WALLCLOCK TIME (SEC) =          0
 

 ***WARNING: THE SYSTEM MATRIX HAS 2 NEGATIVE EIGENVALUES.
             EXPLANATIONS ARE SUGGESTED AFTER THE FIRST OCCURRENCE OF THIS MESSAGE.

 CURRENT VALUE OF MONITOR NODE          3 D.O.F.  1 IS   2.000E-03

  NUMBER OF EQUATIONS =         6     NUMBER OF RHS =    1
  NUMBER OF FLOATING PT. OPERATIONS =  9.10E+01

     CHECK POINT   START OF SOLVER    

     CHECK POINT  END OF SOLVER       

       ELAPSED USER TIME (SEC)      =   0.0000    
       ELAPSED SYSTEM TIME (SEC)    =   0.0000    
       ELAPSED TOTAL CPU TIME (SEC) =   0.0000    
       ELAPSED WALLCLOCK TIME (SEC) =          0
 

 ***WARNING: THE SYSTEM MATRIX HAS 2 NEGATIVE EIGENVALUES.
             EXPLANATIONS ARE SUGGESTED AFTER THE FIRST OCCURRENCE OF THIS MESSAGE.

 CURRENT VALUE OF MONITOR NODE          3 D.O.F.  1 IS   1.000E-03


  INCREMENT   180 STARTS. ATTEMPT NUMBER  1, TIME INCREMENT  0.200    

  NUMBER OF EQUATIONS =         6     NUMBER OF RHS =    1
  NUMBER OF FLOATING PT. OPERATIONS =  9.10E+01

     CHECK POINT   START OF SOLVER    

     CHECK POINT  END OF SOLVER       

       ELAPSED USER TIME (SEC)      =   0.0000    
       ELAPSED SYSTEM TIME (SEC)    =   0.0000    
       ELAPSED TOTAL CPU TIME (SEC) =   0.0000    
       ELAPSED WALLCLOCK TIME (SEC) =          0
 

 ***WARNING: THE SYSTEM MATRIX HAS 2 NEGATIVE EIGENVALUES.
             EXPLANATIONS ARE SUGGESTED AFTER THE FIRST OCCURRENCE OF THIS MESSAGE.

               CONVERGENCE CHECKS FOR EQUILIBRIUM ITERATION     1


 AVERAGE FORCE                       12.2       TIME AVG. FORCE        8.79    
 LARGEST RESIDUAL FORCE             1.616E-13   AT NODE          2   DOF  1
 LARGEST INCREMENT OF DISP.        -1.000E-03   AT NODE          3   DOF  1
 LARGEST CORRECTION TO DISP.        1.329E-16   AT NODE          2   DOF  1
          THE FORCE     EQUILIBRIUM RESPONSE WAS LINEAR IN THIS INCREMENT

 ITERATION SUMMARY FOR THE INCREMENT:   1 TOTAL ITERATIONS, OF WHICH
   0 ARE SEVERE DISCONTINUITY ITERATIONS AND  1 ARE EQUILIBRIUM ITERATIONS.

 CURRENT VALUE OF MONITOR NODE          3 D.O.F.  1 IS   1.420E-16

 TIME INCREMENT COMPLETED  0.200    ,  FRACTION OF STEP COMPLETED   1.00    
 STEP TIME COMPLETED        36.0    ,  TOTAL TIME COMPLETED         36.0    


          THE ANALYSIS HAS BEEN COMPLETED



     ANALYSIS SUMMARY:
     TOTAL OF        180  INCREMENTS
                       0  CUTBACKS IN AUTOMATIC INCREMENTATION
                     180  ITERATIONS INCLUDING CONTACT ITERATIONS IF PRESENT
                     180  PASSES THROUGH THE EQUATION SOLVER OF WHICH 
                     180  INVOLVE MATRIX DECOMPOSITION, INCLUDING
                       0  DECOMPOSITION(S) OF THE MASS MATRIX
                       1  REORDERING OF EQUATIONS TO MINIMIZE WAVEFRONT
                       0  ADDITIONAL RESIDUAL EVALUATIONS FOR LINE SEARCHES
                       0  ADDITIONAL OPERATOR EVALUATIONS FOR LINE SEARCHES
                       0  WARNING MESSAGES DURING USER INPUT PROCESSING
                      79  WARNING MESSAGES DURING ANALYSIS
                       0  ANALYSIS WARNINGS ARE NUMERICAL PROBLEM MESSAGES
                      79  ANALYSIS WARNINGS ARE NEGATIVE EIGENVALUE MESSAGES
                       0  ERROR MESSAGES



     JOB TIME SUMMARY
       USER TIME (SEC)      =   3.6000    
       SYSTEM TIME (SEC)    =   1.4000    
       TOTAL CPU TIME (SEC) =   5.0000    
       WALLCLOCK TIME (SEC) =          7
