1

   Abaqus 3DEXPERIENCE R2018x                                  Date 19-Mar-2022   Time 23:20:23
   For use by INDIAN INSTITUTE OF TECHNOLOGY BOMBAY under license from Dassault Systemes or its subsidiary.

                                                                                 
                                                                                 
 STEP    1     INCREMENT     1     STEP TIME    0.00    


                        S T E P       1     S T A T I C   A N A L Y S I S


                                                                                          

          FIXED TIME INCREMENTS
          TIME INCREMENT IS                                    0.100    
          TIME PERIOD IS                                        11.0    

     LINEAR EQUATION SOLVER TYPE         DIRECT SPARSE

 CONVERGENCE TOLERANCE PARAMETERS FOR FORCE    
     CRITERION FOR RESIDUAL FORCE     FOR A NONLINEAR PROBLEM          5.000E-03
     CRITERION FOR DISP.    CORRECTION IN A NONLINEAR PROBLEM          1.000E-02
     INITIAL VALUE OF TIME AVERAGE FORCE                               1.000E-02
     AVERAGE FORCE     IS TIME AVERAGE FORCE    
     ALTERNATE CRIT. FOR RESIDUAL FORCE     FOR A NONLINEAR PROBLEM    2.000E-02
     CRITERION FOR ZERO FORCE     RELATIVE TO TIME AVRG. FORCE         1.000E-05
     CRITERION FOR RESIDUAL FORCE     WHEN THERE IS ZERO FLUX          1.000E-05
     CRITERION FOR DISP.    CORRECTION WHEN THERE IS ZERO FLUX         1.000E-03
     CRITERION FOR RESIDUAL FORCE     FOR A LINEAR INCREMENT           1.000E-08
     FIELD CONVERSION RATIO                                             1.00    
     CRITERION FOR ZERO FORCE     REL. TO TIME AVRG. MAX. FORCE        1.000E-05
     CRITERION FOR ZERO DISP.    RELATIVE TO CHARACTERISTIC LENGTH     1.000E-08

     VOLUMETRIC STRAIN COMPATIBILITY TOLERANCE FOR HYBRID SOLIDS       1.000E-05
     AXIAL STRAIN COMPATIBILITY TOLERANCE FOR HYBRID BEAMS             1.000E-05
     TRANS. SHEAR STRAIN COMPATIBILITY TOLERANCE FOR HYBRID BEAMS      1.000E-05
     SOFT CONTACT CONSTRAINT COMPATIBILITY TOLERANCE FOR P>P0          5.000E-03
     SOFT CONTACT CONSTRAINT COMPATIBILITY TOLERANCE FOR P=0.0         0.100    
     CONTACT FORCE ERROR TOLERANCE FOR CONVERT SDI=YES                 1.00    
     DISPLACEMENT COMPATIBILITY TOLERANCE FOR DCOUP ELEMENTS           1.000E-05
     ROTATION COMPATIBILITY TOLERANCE FOR DCOUP ELEMENTS               1.000E-05

 EQUILIBRIUM WILL BE CHECKED FOR SEVERE DISCONTINUITY ITERATIONS

 ITERATION CONTROL PARAMETERS:
     FIRST EQUILIBRIUM ITERATION FOR CONSECUTIVE DIVERGENCE CHECK              4
     EQUILIBRIUM ITERATION AFTER WHICH ALTERNATE RESIDUAL IS USED              9
     MAXIMUM EQUILIBRIUM ITERATIONS ALLOWED                                   16
     MAXIMUM ITERATIONS FOR SEVERE DISCONTINUITIES                            12
     GLOBAL STABILIZATION CONTROL IS NOT USED

          PRINT OF INCREMENT NUMBER, TIME, ETC., EVERY    1  INCREMENTS

     THE MAXIMUM NUMBER OF INCREMENTS IN THIS STEP IS                     110

          LARGE DISPLACEMENT THEORY WILL BE USED

     LINEAR EXTRAPOLATION WILL BE USED

     CHARACTERISTIC ELEMENT LENGTH      1.00    

     DETAILS REGARDING ACTUAL SOLUTION WAVEFRONT REQUESTED

     DETAILED OUTPUT OF DIAGNOSTICS TO DATABASE REQUESTED

     PRINT OF INCREMENT NUMBER, TIME, ETC., TO THE MESSAGE FILE EVERY     1  INCREMENTS

     THE STATUS FILE WILL MONITOR NODE           3 DOF  1
     THE MESSAGE FILE WILL MONITOR NODE          3 DOF  1 EVERY     1 INCREMENTS

     COLLECTING MODEL CONSTRAINT INFORMATION FOR OVERCONSTRAINT CHECKS

     COLLECTING STEP CONSTRAINT INFORMATION FOR OVERCONSTRAINT CHECKS


  INCREMENT     1 STARTS. ATTEMPT NUMBER  1, TIME INCREMENT  0.100    

  NUMBER OF EQUATIONS =         4     NUMBER OF RHS =    1
  NUMBER OF FLOATING PT. OPERATIONS =  3.00E+01

     CHECK POINT   START OF SOLVER    

     CHECK POINT  END OF SOLVER       

       ELAPSED USER TIME (SEC)      =   0.0000    
       ELAPSED SYSTEM TIME (SEC)    =   0.0000    
       ELAPSED TOTAL CPU TIME (SEC) =   0.0000    
       ELAPSED WALLCLOCK TIME (SEC) =          0

               CONVERGENCE CHECKS FOR EQUILIBRIUM ITERATION     1


 AVERAGE FORCE                      4.285E-02   TIME AVG. FORCE       4.285E-02
 LARGEST RESIDUAL FORCE             1.500E-05   AT NODE          3   DOF  1
 LARGEST INCREMENT OF DISP.         1.000E-04   AT NODE          3   DOF  1
 LARGEST CORRECTION TO DISP.        1.000E-04   AT NODE          3   DOF  1
 ESTIMATE OF DISP.    CORRECTION    1.500E-08
 FORCE     EQUILIB. ACCEPTED BASED ON SMALL RESIDUAL AND ESTIMATED CORRECTION

 ITERATION SUMMARY FOR THE INCREMENT:   1 TOTAL ITERATIONS, OF WHICH
   0 ARE SEVERE DISCONTINUITY ITERATIONS AND  1 ARE EQUILIBRIUM ITERATIONS.

 CURRENT VALUE OF MONITOR NODE          3 D.O.F.  1 IS   1.000E-04

 TIME INCREMENT COMPLETED  0.100    ,  FRACTION OF STEP COMPLETED  9.091E-03
 STEP TIME COMPLETED       0.100    ,  TOTAL TIME COMPLETED        0.100    


  INCREMENT     2 STARTS. ATTEMPT NUMBER  1, TIME INCREMENT  0.100    

  NUMBER OF EQUATIONS =         6     NUMBER OF RHS =    1
  NUMBER OF FLOATING PT. OPERATIONS =  9.10E+01

     CHECK POINT   START OF SOLVER    

     CHECK POINT  END OF SOLVER       

       ELAPSED USER TIME (SEC)      =   0.0000    
       ELAPSED SYSTEM TIME (SEC)    =   0.0000    
       ELAPSED TOTAL CPU TIME (SEC) =   0.0000    
       ELAPSED WALLCLOCK TIME (SEC) =          0

               CONVERGENCE CHECKS FOR EQUILIBRIUM ITERATION     1


 AVERAGE FORCE                      0.200       TIME AVG. FORCE       0.121    
 LARGEST RESIDUAL FORCE             6.003E-09   AT NODE          3   DOF  1
 LARGEST INCREMENT OF DISP.         1.001E-04   AT NODE          3   DOF  1
 LARGEST CORRECTION TO DISP.        6.002E-08   AT NODE          3   DOF  1
          THE FORCE     EQUILIBRIUM EQUATIONS HAVE CONVERGED

 ITERATION SUMMARY FOR THE INCREMENT:   1 TOTAL ITERATIONS, OF WHICH
   0 ARE SEVERE DISCONTINUITY ITERATIONS AND  1 ARE EQUILIBRIUM ITERATIONS.

 CURRENT VALUE OF MONITOR NODE          3 D.O.F.  1 IS   2.001E-04

 TIME INCREMENT COMPLETED  0.100    ,  FRACTION OF STEP COMPLETED  1.818E-02
 STEP TIME COMPLETED       0.200    ,  TOTAL TIME COMPLETED        0.200    


  INCREMENT     3 STARTS. ATTEMPT NUMBER  1, TIME INCREMENT  0.100    

  NUMBER OF EQUATIONS =         6     NUMBER OF RHS =    1
  NUMBER OF FLOATING PT. OPERATIONS =  9.10E+01

     CHECK POINT   START OF SOLVER    

     CHECK POINT  END OF SOLVER       

       ELAPSED USER TIME (SEC)      =   0.0000    
       ELAPSED SYSTEM TIME (SEC)    =   0.0000    
       ELAPSED TOTAL CPU TIME (SEC) =   0.0000    
       ELAPSED WALLCLOCK TIME (SEC) =          0

               CONVERGENCE CHECKS FOR EQUILIBRIUM ITERATION     1


 AVERAGE FORCE                      0.300       TIME AVG. FORCE       0.181    
 LARGEST RESIDUAL FORCE             1.505E-09   AT NODE          3   DOF  1
 LARGEST INCREMENT OF DISP.         1.001E-04   AT NODE          3   DOF  1
 LARGEST CORRECTION TO DISP.        1.504E-08   AT NODE          3   DOF  1
          THE FORCE     EQUILIBRIUM RESPONSE WAS LINEAR IN THIS INCREMENT

 ITERATION SUMMARY FOR THE INCREMENT:   1 TOTAL ITERATIONS, OF WHICH
   0 ARE SEVERE DISCONTINUITY ITERATIONS AND  1 ARE EQUILIBRIUM ITERATIONS.

 CURRENT VALUE OF MONITOR NODE          3 D.O.F.  1 IS   3.001E-04

 TIME INCREMENT COMPLETED  0.100    ,  FRACTION OF STEP COMPLETED  2.727E-02
 STEP TIME COMPLETED       0.300    ,  TOTAL TIME COMPLETED        0.300    


  INCREMENT     4 STARTS. ATTEMPT NUMBER  1, TIME INCREMENT  0.100    

  NUMBER OF EQUATIONS =         6     NUMBER OF RHS =    1
  NUMBER OF FLOATING PT. OPERATIONS =  9.10E+01

     CHECK POINT   START OF SOLVER    

     CHECK POINT  END OF SOLVER       

       ELAPSED USER TIME (SEC)      =   0.0000    
       ELAPSED SYSTEM TIME (SEC)    =   0.0000    
       ELAPSED TOTAL CPU TIME (SEC) =   0.0000    
       ELAPSED WALLCLOCK TIME (SEC) =          0

               CONVERGENCE CHECKS FOR EQUILIBRIUM ITERATION     1


 AVERAGE FORCE                      0.400       TIME AVG. FORCE       0.236    
 LARGEST RESIDUAL FORCE             3.005E-09   AT NODE          3   DOF  1
 LARGEST INCREMENT OF DISP.         1.001E-04   AT NODE          3   DOF  1
 LARGEST CORRECTION TO DISP.        3.004E-08   AT NODE          3   DOF  1
          THE FORCE     EQUILIBRIUM EQUATIONS HAVE CONVERGED

 ITERATION SUMMARY FOR THE INCREMENT:   1 TOTAL ITERATIONS, OF WHICH
   0 ARE SEVERE DISCONTINUITY ITERATIONS AND  1 ARE EQUILIBRIUM ITERATIONS.

 CURRENT VALUE OF MONITOR NODE          3 D.O.F.  1 IS   4.002E-04

 TIME INCREMENT COMPLETED  0.100    ,  FRACTION OF STEP COMPLETED  3.636E-02
 STEP TIME COMPLETED       0.400    ,  TOTAL TIME COMPLETED        0.400    


  INCREMENT     5 STARTS. ATTEMPT NUMBER  1, TIME INCREMENT  0.100    

  NUMBER OF EQUATIONS =         6     NUMBER OF RHS =    1
  NUMBER OF FLOATING PT. OPERATIONS =  9.10E+01

     CHECK POINT   START OF SOLVER    

     CHECK POINT  END OF SOLVER       

       ELAPSED USER TIME (SEC)      =   0.0000    
       ELAPSED SYSTEM TIME (SEC)    =   0.0000    
       ELAPSED TOTAL CPU TIME (SEC) =   0.0000    
       ELAPSED WALLCLOCK TIME (SEC) =          0

               CONVERGENCE CHECKS FOR EQUILIBRIUM ITERATION     1


 AVERAGE FORCE                      0.500       TIME AVG. FORCE       0.289    
 LARGEST RESIDUAL FORCE             3.006E-09   AT NODE          3   DOF  1
 LARGEST INCREMENT OF DISP.         1.001E-04   AT NODE          3   DOF  1
 LARGEST CORRECTION TO DISP.        3.007E-08   AT NODE          3   DOF  1
          THE FORCE     EQUILIBRIUM EQUATIONS HAVE CONVERGED

 ITERATION SUMMARY FOR THE INCREMENT:   1 TOTAL ITERATIONS, OF WHICH
   0 ARE SEVERE DISCONTINUITY ITERATIONS AND  1 ARE EQUILIBRIUM ITERATIONS.

 CURRENT VALUE OF MONITOR NODE          3 D.O.F.  1 IS   5.004E-04

 TIME INCREMENT COMPLETED  0.100    ,  FRACTION OF STEP COMPLETED  4.545E-02
 STEP TIME COMPLETED       0.500    ,  TOTAL TIME COMPLETED        0.500    


  INCREMENT     6 STARTS. ATTEMPT NUMBER  1, TIME INCREMENT  0.100    

  NUMBER OF EQUATIONS =         6     NUMBER OF RHS =    1
  NUMBER OF FLOATING PT. OPERATIONS =  9.10E+01

     CHECK POINT   START OF SOLVER    

     CHECK POINT  END OF SOLVER       

       ELAPSED USER TIME (SEC)      =   0.0000    
       ELAPSED SYSTEM TIME (SEC)    =   0.0000    
       ELAPSED TOTAL CPU TIME (SEC) =   0.0000    
       ELAPSED WALLCLOCK TIME (SEC) =          0

               CONVERGENCE CHECKS FOR EQUILIBRIUM ITERATION     1


 AVERAGE FORCE                      0.600       TIME AVG. FORCE       0.340    
 LARGEST RESIDUAL FORCE             3.008E-09   AT NODE          3   DOF  1
 LARGEST INCREMENT OF DISP.         1.002E-04   AT NODE          3   DOF  1
 LARGEST CORRECTION TO DISP.        3.008E-08   AT NODE          3   DOF  1
          THE FORCE     EQUILIBRIUM RESPONSE WAS LINEAR IN THIS INCREMENT

 ITERATION SUMMARY FOR THE INCREMENT:   1 TOTAL ITERATIONS, OF WHICH
   0 ARE SEVERE DISCONTINUITY ITERATIONS AND  1 ARE EQUILIBRIUM ITERATIONS.

 CURRENT VALUE OF MONITOR NODE          3 D.O.F.  1 IS   6.005E-04

 TIME INCREMENT COMPLETED  0.100    ,  FRACTION OF STEP COMPLETED  5.455E-02
 STEP TIME COMPLETED       0.600    ,  TOTAL TIME COMPLETED        0.600    


  INCREMENT     7 STARTS. ATTEMPT NUMBER  1, TIME INCREMENT  0.100    

  NUMBER OF EQUATIONS =         6     NUMBER OF RHS =    1
  NUMBER OF FLOATING PT. OPERATIONS =  9.10E+01

     CHECK POINT   START OF SOLVER    

     CHECK POINT  END OF SOLVER       

       ELAPSED USER TIME (SEC)      =   0.0000    
       ELAPSED SYSTEM TIME (SEC)    =   0.0000    
       ELAPSED TOTAL CPU TIME (SEC) =   0.0000    
       ELAPSED WALLCLOCK TIME (SEC) =          0

               CONVERGENCE CHECKS FOR EQUILIBRIUM ITERATION     1


 AVERAGE FORCE                      0.700       TIME AVG. FORCE       0.392    
 LARGEST RESIDUAL FORCE             3.010E-09   AT NODE          3   DOF  1
 LARGEST INCREMENT OF DISP.         1.002E-04   AT NODE          3   DOF  1
 LARGEST CORRECTION TO DISP.        3.010E-08   AT NODE          3   DOF  1
          THE FORCE     EQUILIBRIUM RESPONSE WAS LINEAR IN THIS INCREMENT

 ITERATION SUMMARY FOR THE INCREMENT:   1 TOTAL ITERATIONS, OF WHICH
   0 ARE SEVERE DISCONTINUITY ITERATIONS AND  1 ARE EQUILIBRIUM ITERATIONS.

 CURRENT VALUE OF MONITOR NODE          3 D.O.F.  1 IS   7.007E-04

 TIME INCREMENT COMPLETED  0.100    ,  FRACTION OF STEP COMPLETED  6.364E-02
 STEP TIME COMPLETED       0.700    ,  TOTAL TIME COMPLETED        0.700    


  INCREMENT     8 STARTS. ATTEMPT NUMBER  1, TIME INCREMENT  0.100    

  NUMBER OF EQUATIONS =         6     NUMBER OF RHS =    1
  NUMBER OF FLOATING PT. OPERATIONS =  9.10E+01

     CHECK POINT   START OF SOLVER    

     CHECK POINT  END OF SOLVER       

       ELAPSED USER TIME (SEC)      =   0.0000    
       ELAPSED SYSTEM TIME (SEC)    =   0.0000    
       ELAPSED TOTAL CPU TIME (SEC) =   0.0000    
       ELAPSED WALLCLOCK TIME (SEC) =          0

               CONVERGENCE CHECKS FOR EQUILIBRIUM ITERATION     1


 AVERAGE FORCE                      0.800       TIME AVG. FORCE       0.443    
 LARGEST RESIDUAL FORCE             3.012E-09   AT NODE          3   DOF  1
 LARGEST INCREMENT OF DISP.         1.002E-04   AT NODE          3   DOF  1
 LARGEST CORRECTION TO DISP.        3.011E-08   AT NODE          3   DOF  1
          THE FORCE     EQUILIBRIUM RESPONSE WAS LINEAR IN THIS INCREMENT

 ITERATION SUMMARY FOR THE INCREMENT:   1 TOTAL ITERATIONS, OF WHICH
   0 ARE SEVERE DISCONTINUITY ITERATIONS AND  1 ARE EQUILIBRIUM ITERATIONS.

 CURRENT VALUE OF MONITOR NODE          3 D.O.F.  1 IS   8.010E-04

 TIME INCREMENT COMPLETED  0.100    ,  FRACTION OF STEP COMPLETED  7.273E-02
 STEP TIME COMPLETED       0.800    ,  TOTAL TIME COMPLETED        0.800    


  INCREMENT     9 STARTS. ATTEMPT NUMBER  1, TIME INCREMENT  0.100    

  NUMBER OF EQUATIONS =         6     NUMBER OF RHS =    1
  NUMBER OF FLOATING PT. OPERATIONS =  9.10E+01

     CHECK POINT   START OF SOLVER    

     CHECK POINT  END OF SOLVER       

       ELAPSED USER TIME (SEC)      =   0.0000    
       ELAPSED SYSTEM TIME (SEC)    =   0.0000    
       ELAPSED TOTAL CPU TIME (SEC) =   0.0000    
       ELAPSED WALLCLOCK TIME (SEC) =          0

               CONVERGENCE CHECKS FOR EQUILIBRIUM ITERATION     1


 AVERAGE FORCE                      0.900       TIME AVG. FORCE       0.494    
 LARGEST RESIDUAL FORCE             3.013E-09   AT NODE          3   DOF  1
 LARGEST INCREMENT OF DISP.         1.003E-04   AT NODE          3   DOF  1
 LARGEST CORRECTION TO DISP.        3.013E-08   AT NODE          3   DOF  1
          THE FORCE     EQUILIBRIUM RESPONSE WAS LINEAR IN THIS INCREMENT

 ITERATION SUMMARY FOR THE INCREMENT:   1 TOTAL ITERATIONS, OF WHICH
   0 ARE SEVERE DISCONTINUITY ITERATIONS AND  1 ARE EQUILIBRIUM ITERATIONS.

 CURRENT VALUE OF MONITOR NODE          3 D.O.F.  1 IS   9.012E-04

 TIME INCREMENT COMPLETED  0.100    ,  FRACTION OF STEP COMPLETED  8.182E-02
 STEP TIME COMPLETED       0.900    ,  TOTAL TIME COMPLETED        0.900    


  INCREMENT    10 STARTS. ATTEMPT NUMBER  1, TIME INCREMENT  0.100    

  NUMBER OF EQUATIONS =         6     NUMBER OF RHS =    1
  NUMBER OF FLOATING PT. OPERATIONS =  9.10E+01

     CHECK POINT   START OF SOLVER    

     CHECK POINT  END OF SOLVER       

       ELAPSED USER TIME (SEC)      =   0.0000    
       ELAPSED SYSTEM TIME (SEC)    =   0.0000    
       ELAPSED TOTAL CPU TIME (SEC) =   0.0000    
       ELAPSED WALLCLOCK TIME (SEC) =          0

               CONVERGENCE CHECKS FOR EQUILIBRIUM ITERATION     1


 AVERAGE FORCE                       1.00       TIME AVG. FORCE       0.544    
 LARGEST RESIDUAL FORCE             9.175E-07   AT NODE          3   DOF  1
 LARGEST INCREMENT OF DISP.         1.094E-04   AT NODE          3   DOF  1
 LARGEST CORRECTION TO DISP.        9.135E-06   AT NODE          3   DOF  1
 ESTIMATE OF DISP.    CORRECTION    9.277E-09
 FORCE     EQUILIB. ACCEPTED BASED ON SMALL RESIDUAL AND ESTIMATED CORRECTION

 ITERATION SUMMARY FOR THE INCREMENT:   1 TOTAL ITERATIONS, OF WHICH
   0 ARE SEVERE DISCONTINUITY ITERATIONS AND  1 ARE EQUILIBRIUM ITERATIONS.

 CURRENT VALUE OF MONITOR NODE          3 D.O.F.  1 IS   1.011E-03

 TIME INCREMENT COMPLETED  0.100    ,  FRACTION OF STEP COMPLETED  9.091E-02
 STEP TIME COMPLETED        1.00    ,  TOTAL TIME COMPLETED         1.00    


  INCREMENT    11 STARTS. ATTEMPT NUMBER  1, TIME INCREMENT  0.100    

  NUMBER OF EQUATIONS =         6     NUMBER OF RHS =    1
  NUMBER OF FLOATING PT. OPERATIONS =  9.10E+01

     CHECK POINT   START OF SOLVER    

     CHECK POINT  END OF SOLVER       

       ELAPSED USER TIME (SEC)      =   0.0000    
       ELAPSED SYSTEM TIME (SEC)    =   0.0000    
       ELAPSED TOTAL CPU TIME (SEC) =   0.0000    
       ELAPSED WALLCLOCK TIME (SEC) =          0

               CONVERGENCE CHECKS FOR EQUILIBRIUM ITERATION     1


 AVERAGE FORCE                       1.05       TIME AVG. FORCE       0.590    
 LARGEST RESIDUAL FORCE             2.769E-05   AT NODE          3   DOF  1
 LARGEST INCREMENT OF DISP.         5.062E-04   AT NODE          3   DOF  1
 LARGEST CORRECTION TO DISP.        3.968E-04   AT NODE          3   DOF  1
 ESTIMATE OF DISP.    CORRECTION    2.804E-07
 FORCE     EQUILIB. ACCEPTED BASED ON SMALL RESIDUAL AND ESTIMATED CORRECTION

 ITERATION SUMMARY FOR THE INCREMENT:   1 TOTAL ITERATIONS, OF WHICH
   0 ARE SEVERE DISCONTINUITY ITERATIONS AND  1 ARE EQUILIBRIUM ITERATIONS.

 CURRENT VALUE OF MONITOR NODE          3 D.O.F.  1 IS   1.517E-03

 TIME INCREMENT COMPLETED  0.100    ,  FRACTION OF STEP COMPLETED  0.100    
 STEP TIME COMPLETED        1.10    ,  TOTAL TIME COMPLETED         1.10    


  INCREMENT    12 STARTS. ATTEMPT NUMBER  1, TIME INCREMENT  0.100    

  NUMBER OF EQUATIONS =         6     NUMBER OF RHS =    1
  NUMBER OF FLOATING PT. OPERATIONS =  9.10E+01

     CHECK POINT   START OF SOLVER    

     CHECK POINT  END OF SOLVER       

       ELAPSED USER TIME (SEC)      =   0.0000    
       ELAPSED SYSTEM TIME (SEC)    =   0.0000    
       ELAPSED TOTAL CPU TIME (SEC) =   0.0000    
       ELAPSED WALLCLOCK TIME (SEC) =          0

               CONVERGENCE CHECKS FOR EQUILIBRIUM ITERATION     1


 AVERAGE FORCE                       1.10       TIME AVG. FORCE       0.633    
 LARGEST RESIDUAL FORCE             6.688E-08   AT NODE          3   DOF  1
 LARGEST INCREMENT OF DISP.         5.075E-04   AT NODE          3   DOF  1
 LARGEST CORRECTION TO DISP.        1.324E-06   AT NODE          3   DOF  1
          THE FORCE     EQUILIBRIUM EQUATIONS HAVE CONVERGED

 ITERATION SUMMARY FOR THE INCREMENT:   1 TOTAL ITERATIONS, OF WHICH
   0 ARE SEVERE DISCONTINUITY ITERATIONS AND  1 ARE EQUILIBRIUM ITERATIONS.

 CURRENT VALUE OF MONITOR NODE          3 D.O.F.  1 IS   2.024E-03

 TIME INCREMENT COMPLETED  0.100    ,  FRACTION OF STEP COMPLETED  0.109    
 STEP TIME COMPLETED        1.20    ,  TOTAL TIME COMPLETED         1.20    


  INCREMENT    13 STARTS. ATTEMPT NUMBER  1, TIME INCREMENT  0.100    

  NUMBER OF EQUATIONS =         6     NUMBER OF RHS =    1
  NUMBER OF FLOATING PT. OPERATIONS =  9.10E+01

     CHECK POINT   START OF SOLVER    

     CHECK POINT  END OF SOLVER       

       ELAPSED USER TIME (SEC)      =   0.0000    
       ELAPSED SYSTEM TIME (SEC)    =   0.0000    
       ELAPSED TOTAL CPU TIME (SEC) =   0.0000    
       ELAPSED WALLCLOCK TIME (SEC) =          0

               CONVERGENCE CHECKS FOR EQUILIBRIUM ITERATION     1


 AVERAGE FORCE                       1.15       TIME AVG. FORCE       0.673    
 LARGEST RESIDUAL FORCE             2.496E-08   AT NODE          3   DOF  1
 LARGEST INCREMENT OF DISP.         5.080E-04   AT NODE          3   DOF  1
 LARGEST CORRECTION TO DISP.        4.947E-07   AT NODE          3   DOF  1
          THE FORCE     EQUILIBRIUM EQUATIONS HAVE CONVERGED

 ITERATION SUMMARY FOR THE INCREMENT:   1 TOTAL ITERATIONS, OF WHICH
   0 ARE SEVERE DISCONTINUITY ITERATIONS AND  1 ARE EQUILIBRIUM ITERATIONS.

 CURRENT VALUE OF MONITOR NODE          3 D.O.F.  1 IS   2.532E-03

 TIME INCREMENT COMPLETED  0.100    ,  FRACTION OF STEP COMPLETED  0.118    
 STEP TIME COMPLETED        1.30    ,  TOTAL TIME COMPLETED         1.30    


  INCREMENT    14 STARTS. ATTEMPT NUMBER  1, TIME INCREMENT  0.100    

  NUMBER OF EQUATIONS =         6     NUMBER OF RHS =    1
  NUMBER OF FLOATING PT. OPERATIONS =  9.10E+01

     CHECK POINT   START OF SOLVER    

     CHECK POINT  END OF SOLVER       

       ELAPSED USER TIME (SEC)      =   0.0000    
       ELAPSED SYSTEM TIME (SEC)    =   0.0000    
       ELAPSED TOTAL CPU TIME (SEC) =   0.0000    
       ELAPSED WALLCLOCK TIME (SEC) =          0

               CONVERGENCE CHECKS FOR EQUILIBRIUM ITERATION     1


 AVERAGE FORCE                       1.20       TIME AVG. FORCE       0.710    
 LARGEST RESIDUAL FORCE             3.916E-08   AT NODE          3   DOF  1
 LARGEST INCREMENT OF DISP.         5.088E-04   AT NODE          3   DOF  1
 LARGEST CORRECTION TO DISP.        7.759E-07   AT NODE          3   DOF  1
          THE FORCE     EQUILIBRIUM EQUATIONS HAVE CONVERGED

 ITERATION SUMMARY FOR THE INCREMENT:   1 TOTAL ITERATIONS, OF WHICH
   0 ARE SEVERE DISCONTINUITY ITERATIONS AND  1 ARE EQUILIBRIUM ITERATIONS.

 CURRENT VALUE OF MONITOR NODE          3 D.O.F.  1 IS   3.041E-03

 TIME INCREMENT COMPLETED  0.100    ,  FRACTION OF STEP COMPLETED  0.127    
 STEP TIME COMPLETED        1.40    ,  TOTAL TIME COMPLETED         1.40    


  INCREMENT    15 STARTS. ATTEMPT NUMBER  1, TIME INCREMENT  0.100    

  NUMBER OF EQUATIONS =         6     NUMBER OF RHS =    1
  NUMBER OF FLOATING PT. OPERATIONS =  9.10E+01

     CHECK POINT   START OF SOLVER    

     CHECK POINT  END OF SOLVER       

       ELAPSED USER TIME (SEC)      =   0.0000    
       ELAPSED SYSTEM TIME (SEC)    =   0.0000    
       ELAPSED TOTAL CPU TIME (SEC) =   0.0000    
       ELAPSED WALLCLOCK TIME (SEC) =          0

               CONVERGENCE CHECKS FOR EQUILIBRIUM ITERATION     1


 AVERAGE FORCE                       1.25       TIME AVG. FORCE       0.746    
 LARGEST RESIDUAL FORCE             3.930E-08   AT NODE          3   DOF  1
 LARGEST INCREMENT OF DISP.         5.096E-04   AT NODE          3   DOF  1
 LARGEST CORRECTION TO DISP.        7.787E-07   AT NODE          3   DOF  1
          THE FORCE     EQUILIBRIUM EQUATIONS HAVE CONVERGED

 ITERATION SUMMARY FOR THE INCREMENT:   1 TOTAL ITERATIONS, OF WHICH
   0 ARE SEVERE DISCONTINUITY ITERATIONS AND  1 ARE EQUILIBRIUM ITERATIONS.

 CURRENT VALUE OF MONITOR NODE          3 D.O.F.  1 IS   3.551E-03

 TIME INCREMENT COMPLETED  0.100    ,  FRACTION OF STEP COMPLETED  0.136    
 STEP TIME COMPLETED        1.50    ,  TOTAL TIME COMPLETED         1.50    


  INCREMENT    16 STARTS. ATTEMPT NUMBER  1, TIME INCREMENT  0.100    

  NUMBER OF EQUATIONS =         6     NUMBER OF RHS =    1
  NUMBER OF FLOATING PT. OPERATIONS =  9.10E+01

     CHECK POINT   START OF SOLVER    

     CHECK POINT  END OF SOLVER       

       ELAPSED USER TIME (SEC)      =   0.0000    
       ELAPSED SYSTEM TIME (SEC)    =   0.0000    
       ELAPSED TOTAL CPU TIME (SEC) =   0.0000    
       ELAPSED WALLCLOCK TIME (SEC) =          0

               CONVERGENCE CHECKS FOR EQUILIBRIUM ITERATION     1


 AVERAGE FORCE                       1.30       TIME AVG. FORCE       0.781    
 LARGEST RESIDUAL FORCE             3.940E-08   AT NODE          3   DOF  1
 LARGEST INCREMENT OF DISP.         5.103E-04   AT NODE          3   DOF  1
 LARGEST CORRECTION TO DISP.        7.807E-07   AT NODE          3   DOF  1
          THE FORCE     EQUILIBRIUM EQUATIONS HAVE CONVERGED

 ITERATION SUMMARY FOR THE INCREMENT:   1 TOTAL ITERATIONS, OF WHICH
   0 ARE SEVERE DISCONTINUITY ITERATIONS AND  1 ARE EQUILIBRIUM ITERATIONS.

 CURRENT VALUE OF MONITOR NODE          3 D.O.F.  1 IS   4.061E-03

 TIME INCREMENT COMPLETED  0.100    ,  FRACTION OF STEP COMPLETED  0.145    
 STEP TIME COMPLETED        1.60    ,  TOTAL TIME COMPLETED         1.60    


  INCREMENT    17 STARTS. ATTEMPT NUMBER  1, TIME INCREMENT  0.100    

  NUMBER OF EQUATIONS =         6     NUMBER OF RHS =    1
  NUMBER OF FLOATING PT. OPERATIONS =  9.10E+01

     CHECK POINT   START OF SOLVER    

     CHECK POINT  END OF SOLVER       

       ELAPSED USER TIME (SEC)      =   0.0000    
       ELAPSED SYSTEM TIME (SEC)    =   0.0000    
       ELAPSED TOTAL CPU TIME (SEC) =   0.0000    
       ELAPSED WALLCLOCK TIME (SEC) =          0

               CONVERGENCE CHECKS FOR EQUILIBRIUM ITERATION     1


 AVERAGE FORCE                       1.35       TIME AVG. FORCE       0.814    
 LARGEST RESIDUAL FORCE             3.951E-08   AT NODE          3   DOF  1
 LARGEST INCREMENT OF DISP.         5.111E-04   AT NODE          3   DOF  1
 LARGEST CORRECTION TO DISP.        7.828E-07   AT NODE          3   DOF  1
          THE FORCE     EQUILIBRIUM EQUATIONS HAVE CONVERGED

 ITERATION SUMMARY FOR THE INCREMENT:   1 TOTAL ITERATIONS, OF WHICH
   0 ARE SEVERE DISCONTINUITY ITERATIONS AND  1 ARE EQUILIBRIUM ITERATIONS.

 CURRENT VALUE OF MONITOR NODE          3 D.O.F.  1 IS   4.572E-03

 TIME INCREMENT COMPLETED  0.100    ,  FRACTION OF STEP COMPLETED  0.155    
 STEP TIME COMPLETED        1.70    ,  TOTAL TIME COMPLETED         1.70    


  INCREMENT    18 STARTS. ATTEMPT NUMBER  1, TIME INCREMENT  0.100    

  NUMBER OF EQUATIONS =         6     NUMBER OF RHS =    1
  NUMBER OF FLOATING PT. OPERATIONS =  9.10E+01

     CHECK POINT   START OF SOLVER    

     CHECK POINT  END OF SOLVER       

       ELAPSED USER TIME (SEC)      =   0.0000    
       ELAPSED SYSTEM TIME (SEC)    =   0.0000    
       ELAPSED TOTAL CPU TIME (SEC) =   0.0000    
       ELAPSED WALLCLOCK TIME (SEC) =          0

               CONVERGENCE CHECKS FOR EQUILIBRIUM ITERATION     1


 AVERAGE FORCE                       1.40       TIME AVG. FORCE       0.847    
 LARGEST RESIDUAL FORCE             3.962E-08   AT NODE          3   DOF  1
 LARGEST INCREMENT OF DISP.         5.119E-04   AT NODE          3   DOF  1
 LARGEST CORRECTION TO DISP.        7.850E-07   AT NODE          3   DOF  1
          THE FORCE     EQUILIBRIUM EQUATIONS HAVE CONVERGED

 ITERATION SUMMARY FOR THE INCREMENT:   1 TOTAL ITERATIONS, OF WHICH
   0 ARE SEVERE DISCONTINUITY ITERATIONS AND  1 ARE EQUILIBRIUM ITERATIONS.

 CURRENT VALUE OF MONITOR NODE          3 D.O.F.  1 IS   5.084E-03

 TIME INCREMENT COMPLETED  0.100    ,  FRACTION OF STEP COMPLETED  0.164    
 STEP TIME COMPLETED        1.80    ,  TOTAL TIME COMPLETED         1.80    


  INCREMENT    19 STARTS. ATTEMPT NUMBER  1, TIME INCREMENT  0.100    

  NUMBER OF EQUATIONS =         6     NUMBER OF RHS =    1
  NUMBER OF FLOATING PT. OPERATIONS =  9.10E+01

     CHECK POINT   START OF SOLVER    

     CHECK POINT  END OF SOLVER       

       ELAPSED USER TIME (SEC)      =   0.0000    
       ELAPSED SYSTEM TIME (SEC)    =   0.0000    
       ELAPSED TOTAL CPU TIME (SEC) =   0.0000    
       ELAPSED WALLCLOCK TIME (SEC) =          0

               CONVERGENCE CHECKS FOR EQUILIBRIUM ITERATION     1


 AVERAGE FORCE                       1.45       TIME AVG. FORCE       0.879    
 LARGEST RESIDUAL FORCE             3.973E-08   AT NODE          3   DOF  1
 LARGEST INCREMENT OF DISP.         5.127E-04   AT NODE          3   DOF  1
 LARGEST CORRECTION TO DISP.        7.871E-07   AT NODE          3   DOF  1
          THE FORCE     EQUILIBRIUM EQUATIONS HAVE CONVERGED

 ITERATION SUMMARY FOR THE INCREMENT:   1 TOTAL ITERATIONS, OF WHICH
   0 ARE SEVERE DISCONTINUITY ITERATIONS AND  1 ARE EQUILIBRIUM ITERATIONS.

 CURRENT VALUE OF MONITOR NODE          3 D.O.F.  1 IS   5.597E-03

 TIME INCREMENT COMPLETED  0.100    ,  FRACTION OF STEP COMPLETED  0.173    
 STEP TIME COMPLETED        1.90    ,  TOTAL TIME COMPLETED         1.90    


  INCREMENT    20 STARTS. ATTEMPT NUMBER  1, TIME INCREMENT  0.100    

  NUMBER OF EQUATIONS =         6     NUMBER OF RHS =    1
  NUMBER OF FLOATING PT. OPERATIONS =  9.10E+01

     CHECK POINT   START OF SOLVER    

     CHECK POINT  END OF SOLVER       

       ELAPSED USER TIME (SEC)      =   0.0000    
       ELAPSED SYSTEM TIME (SEC)    =   0.0000    
       ELAPSED TOTAL CPU TIME (SEC) =   0.0000    
       ELAPSED WALLCLOCK TIME (SEC) =          0

               CONVERGENCE CHECKS FOR EQUILIBRIUM ITERATION     1


 AVERAGE FORCE                       1.50       TIME AVG. FORCE       0.910    
 LARGEST RESIDUAL FORCE             3.983E-08   AT NODE          3   DOF  1
 LARGEST INCREMENT OF DISP.         5.135E-04   AT NODE          3   DOF  1
 LARGEST CORRECTION TO DISP.        7.893E-07   AT NODE          3   DOF  1
          THE FORCE     EQUILIBRIUM EQUATIONS HAVE CONVERGED

 ITERATION SUMMARY FOR THE INCREMENT:   1 TOTAL ITERATIONS, OF WHICH
   0 ARE SEVERE DISCONTINUITY ITERATIONS AND  1 ARE EQUILIBRIUM ITERATIONS.

 CURRENT VALUE OF MONITOR NODE          3 D.O.F.  1 IS   6.110E-03

 TIME INCREMENT COMPLETED  0.100    ,  FRACTION OF STEP COMPLETED  0.182    
 STEP TIME COMPLETED        2.00    ,  TOTAL TIME COMPLETED         2.00    


  INCREMENT    21 STARTS. ATTEMPT NUMBER  1, TIME INCREMENT  0.100    

  NUMBER OF EQUATIONS =         6     NUMBER OF RHS =    1
  NUMBER OF FLOATING PT. OPERATIONS =  9.10E+01

     CHECK POINT   START OF SOLVER    

     CHECK POINT  END OF SOLVER       

       ELAPSED USER TIME (SEC)      =   0.0000    
       ELAPSED SYSTEM TIME (SEC)    =   0.0000    
       ELAPSED TOTAL CPU TIME (SEC) =   0.0000    
       ELAPSED WALLCLOCK TIME (SEC) =          0

               CONVERGENCE CHECKS FOR EQUILIBRIUM ITERATION     1


 AVERAGE FORCE                       1.62       TIME AVG. FORCE       0.943    
 LARGEST RESIDUAL FORCE             1.031E-04   AT NODE          3   DOF  1
 LARGEST INCREMENT OF DISP.         1.200E-03   AT NODE          3   DOF  1
 LARGEST CORRECTION TO DISP.        6.867E-04   AT NODE          3   DOF  1
 ESTIMATE OF DISP.    CORRECTION    1.061E-06
 FORCE     EQUILIB. ACCEPTED BASED ON SMALL RESIDUAL AND ESTIMATED CORRECTION

 ITERATION SUMMARY FOR THE INCREMENT:   1 TOTAL ITERATIONS, OF WHICH
   0 ARE SEVERE DISCONTINUITY ITERATIONS AND  1 ARE EQUILIBRIUM ITERATIONS.

 CURRENT VALUE OF MONITOR NODE          3 D.O.F.  1 IS   7.310E-03

 TIME INCREMENT COMPLETED  0.100    ,  FRACTION OF STEP COMPLETED  0.191    
 STEP TIME COMPLETED        2.10    ,  TOTAL TIME COMPLETED         2.10    


  INCREMENT    22 STARTS. ATTEMPT NUMBER  1, TIME INCREMENT  0.100    

  NUMBER OF EQUATIONS =         6     NUMBER OF RHS =    1
  NUMBER OF FLOATING PT. OPERATIONS =  9.10E+01

     CHECK POINT   START OF SOLVER    

     CHECK POINT  END OF SOLVER       

       ELAPSED USER TIME (SEC)      =   0.0000    
       ELAPSED SYSTEM TIME (SEC)    =   0.0000    
       ELAPSED TOTAL CPU TIME (SEC) =   0.0000    
       ELAPSED WALLCLOCK TIME (SEC) =          0

               CONVERGENCE CHECKS FOR EQUILIBRIUM ITERATION     1


 AVERAGE FORCE                       1.73       TIME AVG. FORCE       0.979    
 LARGEST RESIDUAL FORCE             7.619E-07   AT NODE          3   DOF  1
 LARGEST INCREMENT OF DISP.         1.207E-03   AT NODE          3   DOF  1
 LARGEST CORRECTION TO DISP.        6.456E-06   AT NODE          3   DOF  1
          THE FORCE     EQUILIBRIUM EQUATIONS HAVE CONVERGED

 ITERATION SUMMARY FOR THE INCREMENT:   1 TOTAL ITERATIONS, OF WHICH
   0 ARE SEVERE DISCONTINUITY ITERATIONS AND  1 ARE EQUILIBRIUM ITERATIONS.

 CURRENT VALUE OF MONITOR NODE          3 D.O.F.  1 IS   8.517E-03

 TIME INCREMENT COMPLETED  0.100    ,  FRACTION OF STEP COMPLETED  0.200    
 STEP TIME COMPLETED        2.20    ,  TOTAL TIME COMPLETED         2.20    


  INCREMENT    23 STARTS. ATTEMPT NUMBER  1, TIME INCREMENT  0.100    

  NUMBER OF EQUATIONS =         6     NUMBER OF RHS =    1
  NUMBER OF FLOATING PT. OPERATIONS =  9.10E+01

     CHECK POINT   START OF SOLVER    

     CHECK POINT  END OF SOLVER       

       ELAPSED USER TIME (SEC)      =   0.0000    
       ELAPSED SYSTEM TIME (SEC)    =   0.0000    
       ELAPSED TOTAL CPU TIME (SEC) =   0.0000    
       ELAPSED WALLCLOCK TIME (SEC) =          0

               CONVERGENCE CHECKS FOR EQUILIBRIUM ITERATION     1


 AVERAGE FORCE                       1.85       TIME AVG. FORCE        1.02    
 LARGEST RESIDUAL FORCE             3.901E-07   AT NODE          3   DOF  1
 LARGEST INCREMENT OF DISP.         1.210E-03   AT NODE          3   DOF  1
 LARGEST CORRECTION TO DISP.        3.313E-06   AT NODE          3   DOF  1
          THE FORCE     EQUILIBRIUM EQUATIONS HAVE CONVERGED

 ITERATION SUMMARY FOR THE INCREMENT:   1 TOTAL ITERATIONS, OF WHICH
   0 ARE SEVERE DISCONTINUITY ITERATIONS AND  1 ARE EQUILIBRIUM ITERATIONS.

 CURRENT VALUE OF MONITOR NODE          3 D.O.F.  1 IS   9.727E-03

 TIME INCREMENT COMPLETED  0.100    ,  FRACTION OF STEP COMPLETED  0.209    
 STEP TIME COMPLETED        2.30    ,  TOTAL TIME COMPLETED         2.30    


  INCREMENT    24 STARTS. ATTEMPT NUMBER  1, TIME INCREMENT  0.100    

  NUMBER OF EQUATIONS =         6     NUMBER OF RHS =    1
  NUMBER OF FLOATING PT. OPERATIONS =  9.10E+01

     CHECK POINT   START OF SOLVER    

     CHECK POINT  END OF SOLVER       

       ELAPSED USER TIME (SEC)      =   0.0000    
       ELAPSED SYSTEM TIME (SEC)    =   0.0000    
       ELAPSED TOTAL CPU TIME (SEC) =   0.0000    
       ELAPSED WALLCLOCK TIME (SEC) =          0

               CONVERGENCE CHECKS FOR EQUILIBRIUM ITERATION     1


 AVERAGE FORCE                       1.97       TIME AVG. FORCE        1.06    
 LARGEST RESIDUAL FORCE             5.169E-07   AT NODE          3   DOF  1
 LARGEST INCREMENT OF DISP.         1.214E-03   AT NODE          3   DOF  1
 LARGEST CORRECTION TO DISP.        4.388E-06   AT NODE          3   DOF  1
          THE FORCE     EQUILIBRIUM EQUATIONS HAVE CONVERGED

 ITERATION SUMMARY FOR THE INCREMENT:   1 TOTAL ITERATIONS, OF WHICH
   0 ARE SEVERE DISCONTINUITY ITERATIONS AND  1 ARE EQUILIBRIUM ITERATIONS.

 CURRENT VALUE OF MONITOR NODE          3 D.O.F.  1 IS   1.094E-02

 TIME INCREMENT COMPLETED  0.100    ,  FRACTION OF STEP COMPLETED  0.218    
 STEP TIME COMPLETED        2.40    ,  TOTAL TIME COMPLETED         2.40    


  INCREMENT    25 STARTS. ATTEMPT NUMBER  1, TIME INCREMENT  0.100    

  NUMBER OF EQUATIONS =         6     NUMBER OF RHS =    1
  NUMBER OF FLOATING PT. OPERATIONS =  9.10E+01

     CHECK POINT   START OF SOLVER    

     CHECK POINT  END OF SOLVER       

       ELAPSED USER TIME (SEC)      =   0.0000    
       ELAPSED SYSTEM TIME (SEC)    =   0.0000    
       ELAPSED TOTAL CPU TIME (SEC) =   0.0000    
       ELAPSED WALLCLOCK TIME (SEC) =          0

               CONVERGENCE CHECKS FOR EQUILIBRIUM ITERATION     1


 AVERAGE FORCE                       2.08       TIME AVG. FORCE        1.10    
 LARGEST RESIDUAL FORCE             5.210E-07   AT NODE          3   DOF  1
 LARGEST INCREMENT OF DISP.         1.219E-03   AT NODE          3   DOF  1
 LARGEST CORRECTION TO DISP.        4.423E-06   AT NODE          3   DOF  1
          THE FORCE     EQUILIBRIUM EQUATIONS HAVE CONVERGED

 ITERATION SUMMARY FOR THE INCREMENT:   1 TOTAL ITERATIONS, OF WHICH
   0 ARE SEVERE DISCONTINUITY ITERATIONS AND  1 ARE EQUILIBRIUM ITERATIONS.

 CURRENT VALUE OF MONITOR NODE          3 D.O.F.  1 IS   1.216E-02

 TIME INCREMENT COMPLETED  0.100    ,  FRACTION OF STEP COMPLETED  0.227    
 STEP TIME COMPLETED        2.50    ,  TOTAL TIME COMPLETED         2.50    


  INCREMENT    26 STARTS. ATTEMPT NUMBER  1, TIME INCREMENT  0.100    

  NUMBER OF EQUATIONS =         6     NUMBER OF RHS =    1
  NUMBER OF FLOATING PT. OPERATIONS =  9.10E+01

     CHECK POINT   START OF SOLVER    

     CHECK POINT  END OF SOLVER       

       ELAPSED USER TIME (SEC)      =   0.0000    
       ELAPSED SYSTEM TIME (SEC)    =   0.0000    
       ELAPSED TOTAL CPU TIME (SEC) =   0.0000    
       ELAPSED WALLCLOCK TIME (SEC) =          0

               CONVERGENCE CHECKS FOR EQUILIBRIUM ITERATION     1


 AVERAGE FORCE                       2.20       TIME AVG. FORCE        1.14    
 LARGEST RESIDUAL FORCE             5.243E-07   AT NODE          3   DOF  1
 LARGEST INCREMENT OF DISP.         1.223E-03   AT NODE          3   DOF  1
 LARGEST CORRECTION TO DISP.        4.450E-06   AT NODE          3   DOF  1
          THE FORCE     EQUILIBRIUM EQUATIONS HAVE CONVERGED

 ITERATION SUMMARY FOR THE INCREMENT:   1 TOTAL ITERATIONS, OF WHICH
   0 ARE SEVERE DISCONTINUITY ITERATIONS AND  1 ARE EQUILIBRIUM ITERATIONS.

 CURRENT VALUE OF MONITOR NODE          3 D.O.F.  1 IS   1.338E-02

 TIME INCREMENT COMPLETED  0.100    ,  FRACTION OF STEP COMPLETED  0.236    
 STEP TIME COMPLETED        2.60    ,  TOTAL TIME COMPLETED         2.60    


  INCREMENT    27 STARTS. ATTEMPT NUMBER  1, TIME INCREMENT  0.100    

  NUMBER OF EQUATIONS =         6     NUMBER OF RHS =    1
  NUMBER OF FLOATING PT. OPERATIONS =  9.10E+01

     CHECK POINT   START OF SOLVER    

     CHECK POINT  END OF SOLVER       

       ELAPSED USER TIME (SEC)      =   0.0000    
       ELAPSED SYSTEM TIME (SEC)    =   0.0000    
       ELAPSED TOTAL CPU TIME (SEC) =   0.0000    
       ELAPSED WALLCLOCK TIME (SEC) =          0

               CONVERGENCE CHECKS FOR EQUILIBRIUM ITERATION     1


 AVERAGE FORCE                       2.32       TIME AVG. FORCE        1.18    
 LARGEST RESIDUAL FORCE             5.277E-07   AT NODE          3   DOF  1
 LARGEST INCREMENT OF DISP.         1.228E-03   AT NODE          3   DOF  1
 LARGEST CORRECTION TO DISP.        4.479E-06   AT NODE          3   DOF  1
          THE FORCE     EQUILIBRIUM EQUATIONS HAVE CONVERGED

 ITERATION SUMMARY FOR THE INCREMENT:   1 TOTAL ITERATIONS, OF WHICH
   0 ARE SEVERE DISCONTINUITY ITERATIONS AND  1 ARE EQUILIBRIUM ITERATIONS.

 CURRENT VALUE OF MONITOR NODE          3 D.O.F.  1 IS   1.461E-02

 TIME INCREMENT COMPLETED  0.100    ,  FRACTION OF STEP COMPLETED  0.245    
 STEP TIME COMPLETED        2.70    ,  TOTAL TIME COMPLETED         2.70    


  INCREMENT    28 STARTS. ATTEMPT NUMBER  1, TIME INCREMENT  0.100    

  NUMBER OF EQUATIONS =         6     NUMBER OF RHS =    1
  NUMBER OF FLOATING PT. OPERATIONS =  9.10E+01

     CHECK POINT   START OF SOLVER    

     CHECK POINT  END OF SOLVER       

       ELAPSED USER TIME (SEC)      =   0.0000    
       ELAPSED SYSTEM TIME (SEC)    =   0.0000    
       ELAPSED TOTAL CPU TIME (SEC) =   0.0000    
       ELAPSED WALLCLOCK TIME (SEC) =          0

               CONVERGENCE CHECKS FOR EQUILIBRIUM ITERATION     1


 AVERAGE FORCE                       2.43       TIME AVG. FORCE        1.23    
 LARGEST RESIDUAL FORCE             5.312E-07   AT NODE          3   DOF  1
 LARGEST INCREMENT OF DISP.         1.232E-03   AT NODE          3   DOF  1
 LARGEST CORRECTION TO DISP.        4.509E-06   AT NODE          3   DOF  1
          THE FORCE     EQUILIBRIUM EQUATIONS HAVE CONVERGED

 ITERATION SUMMARY FOR THE INCREMENT:   1 TOTAL ITERATIONS, OF WHICH
   0 ARE SEVERE DISCONTINUITY ITERATIONS AND  1 ARE EQUILIBRIUM ITERATIONS.

 CURRENT VALUE OF MONITOR NODE          3 D.O.F.  1 IS   1.584E-02

 TIME INCREMENT COMPLETED  0.100    ,  FRACTION OF STEP COMPLETED  0.255    
 STEP TIME COMPLETED        2.80    ,  TOTAL TIME COMPLETED         2.80    


  INCREMENT    29 STARTS. ATTEMPT NUMBER  1, TIME INCREMENT  0.100    

  NUMBER OF EQUATIONS =         6     NUMBER OF RHS =    1
  NUMBER OF FLOATING PT. OPERATIONS =  9.10E+01

     CHECK POINT   START OF SOLVER    

     CHECK POINT  END OF SOLVER       

       ELAPSED USER TIME (SEC)      =   0.0000    
       ELAPSED SYSTEM TIME (SEC)    =   0.0000    
       ELAPSED TOTAL CPU TIME (SEC) =   0.0000    
       ELAPSED WALLCLOCK TIME (SEC) =          0

               CONVERGENCE CHECKS FOR EQUILIBRIUM ITERATION     1


 AVERAGE FORCE                       2.55       TIME AVG. FORCE        1.27    
 LARGEST RESIDUAL FORCE             5.347E-07   AT NODE          3   DOF  1
 LARGEST INCREMENT OF DISP.         1.237E-03   AT NODE          3   DOF  1
 LARGEST CORRECTION TO DISP.        4.538E-06   AT NODE          3   DOF  1
          THE FORCE     EQUILIBRIUM EQUATIONS HAVE CONVERGED

 ITERATION SUMMARY FOR THE INCREMENT:   1 TOTAL ITERATIONS, OF WHICH
   0 ARE SEVERE DISCONTINUITY ITERATIONS AND  1 ARE EQUILIBRIUM ITERATIONS.

 CURRENT VALUE OF MONITOR NODE          3 D.O.F.  1 IS   1.708E-02

 TIME INCREMENT COMPLETED  0.100    ,  FRACTION OF STEP COMPLETED  0.264    
 STEP TIME COMPLETED        2.90    ,  TOTAL TIME COMPLETED         2.90    


  INCREMENT    30 STARTS. ATTEMPT NUMBER  1, TIME INCREMENT  0.100    

  NUMBER OF EQUATIONS =         6     NUMBER OF RHS =    1
  NUMBER OF FLOATING PT. OPERATIONS =  9.10E+01

     CHECK POINT   START OF SOLVER    

     CHECK POINT  END OF SOLVER       

       ELAPSED USER TIME (SEC)      =   0.0000    
       ELAPSED SYSTEM TIME (SEC)    =   0.0000    
       ELAPSED TOTAL CPU TIME (SEC) =   0.0000    
       ELAPSED WALLCLOCK TIME (SEC) =          0

               CONVERGENCE CHECKS FOR EQUILIBRIUM ITERATION     1


 AVERAGE FORCE                       2.67       TIME AVG. FORCE        1.32    
 LARGEST RESIDUAL FORCE             5.383E-07   AT NODE          3   DOF  1
 LARGEST INCREMENT OF DISP.         1.241E-03   AT NODE          3   DOF  1
 LARGEST CORRECTION TO DISP.        4.568E-06   AT NODE          3   DOF  1
          THE FORCE     EQUILIBRIUM EQUATIONS HAVE CONVERGED

 ITERATION SUMMARY FOR THE INCREMENT:   1 TOTAL ITERATIONS, OF WHICH
   0 ARE SEVERE DISCONTINUITY ITERATIONS AND  1 ARE EQUILIBRIUM ITERATIONS.

 CURRENT VALUE OF MONITOR NODE          3 D.O.F.  1 IS   1.832E-02

 TIME INCREMENT COMPLETED  0.100    ,  FRACTION OF STEP COMPLETED  0.273    
 STEP TIME COMPLETED        3.00    ,  TOTAL TIME COMPLETED         3.00    


  INCREMENT    31 STARTS. ATTEMPT NUMBER  1, TIME INCREMENT  0.100    

  NUMBER OF EQUATIONS =         6     NUMBER OF RHS =    1
  NUMBER OF FLOATING PT. OPERATIONS =  9.10E+01

     CHECK POINT   START OF SOLVER    

     CHECK POINT  END OF SOLVER       

       ELAPSED USER TIME (SEC)      =   0.0000    
       ELAPSED SYSTEM TIME (SEC)    =   0.0000    
       ELAPSED TOTAL CPU TIME (SEC) =   0.0000    
       ELAPSED WALLCLOCK TIME (SEC) =          0

               CONVERGENCE CHECKS FOR EQUILIBRIUM ITERATION     1


 AVERAGE FORCE                       2.78       TIME AVG. FORCE        1.37    
 LARGEST RESIDUAL FORCE             5.418E-07   AT NODE          3   DOF  1
 LARGEST INCREMENT OF DISP.         1.246E-03   AT NODE          3   DOF  1
 LARGEST CORRECTION TO DISP.        4.598E-06   AT NODE          3   DOF  1
          THE FORCE     EQUILIBRIUM EQUATIONS HAVE CONVERGED

 ITERATION SUMMARY FOR THE INCREMENT:   1 TOTAL ITERATIONS, OF WHICH
   0 ARE SEVERE DISCONTINUITY ITERATIONS AND  1 ARE EQUILIBRIUM ITERATIONS.

 CURRENT VALUE OF MONITOR NODE          3 D.O.F.  1 IS   1.957E-02

 TIME INCREMENT COMPLETED  0.100    ,  FRACTION OF STEP COMPLETED  0.282    
 STEP TIME COMPLETED        3.10    ,  TOTAL TIME COMPLETED         3.10    


  INCREMENT    32 STARTS. ATTEMPT NUMBER  1, TIME INCREMENT  0.100    

  NUMBER OF EQUATIONS =         6     NUMBER OF RHS =    1
  NUMBER OF FLOATING PT. OPERATIONS =  9.10E+01

     CHECK POINT   START OF SOLVER    

     CHECK POINT  END OF SOLVER       

       ELAPSED USER TIME (SEC)      =   0.0000    
       ELAPSED SYSTEM TIME (SEC)    =   0.0000    
       ELAPSED TOTAL CPU TIME (SEC) =   0.0000    
       ELAPSED WALLCLOCK TIME (SEC) =          0

               CONVERGENCE CHECKS FOR EQUILIBRIUM ITERATION     1


 AVERAGE FORCE                       2.90       TIME AVG. FORCE        1.42    
 LARGEST RESIDUAL FORCE             5.454E-07   AT NODE          3   DOF  1
 LARGEST INCREMENT OF DISP.         1.251E-03   AT NODE          3   DOF  1
 LARGEST CORRECTION TO DISP.        4.629E-06   AT NODE          3   DOF  1
          THE FORCE     EQUILIBRIUM EQUATIONS HAVE CONVERGED

 ITERATION SUMMARY FOR THE INCREMENT:   1 TOTAL ITERATIONS, OF WHICH
   0 ARE SEVERE DISCONTINUITY ITERATIONS AND  1 ARE EQUILIBRIUM ITERATIONS.

 CURRENT VALUE OF MONITOR NODE          3 D.O.F.  1 IS   2.082E-02

 TIME INCREMENT COMPLETED  0.100    ,  FRACTION OF STEP COMPLETED  0.291    
 STEP TIME COMPLETED        3.20    ,  TOTAL TIME COMPLETED         3.20    


  INCREMENT    33 STARTS. ATTEMPT NUMBER  1, TIME INCREMENT  0.100    

  NUMBER OF EQUATIONS =         6     NUMBER OF RHS =    1
  NUMBER OF FLOATING PT. OPERATIONS =  9.10E+01

     CHECK POINT   START OF SOLVER    

     CHECK POINT  END OF SOLVER       

       ELAPSED USER TIME (SEC)      =   0.0000    
       ELAPSED SYSTEM TIME (SEC)    =   0.0000    
       ELAPSED TOTAL CPU TIME (SEC) =   0.0000    
       ELAPSED WALLCLOCK TIME (SEC) =          0

               CONVERGENCE CHECKS FOR EQUILIBRIUM ITERATION     1


 AVERAGE FORCE                       3.02       TIME AVG. FORCE        1.46    
 LARGEST RESIDUAL FORCE             5.491E-07   AT NODE          3   DOF  1
 LARGEST INCREMENT OF DISP.         1.255E-03   AT NODE          3   DOF  1
 LARGEST CORRECTION TO DISP.        4.660E-06   AT NODE          3   DOF  1
          THE FORCE     EQUILIBRIUM EQUATIONS HAVE CONVERGED

 ITERATION SUMMARY FOR THE INCREMENT:   1 TOTAL ITERATIONS, OF WHICH
   0 ARE SEVERE DISCONTINUITY ITERATIONS AND  1 ARE EQUILIBRIUM ITERATIONS.

 CURRENT VALUE OF MONITOR NODE          3 D.O.F.  1 IS   2.207E-02

 TIME INCREMENT COMPLETED  0.100    ,  FRACTION OF STEP COMPLETED  0.300    
 STEP TIME COMPLETED        3.30    ,  TOTAL TIME COMPLETED         3.30    


  INCREMENT    34 STARTS. ATTEMPT NUMBER  1, TIME INCREMENT  0.100    

  NUMBER OF EQUATIONS =         6     NUMBER OF RHS =    1
  NUMBER OF FLOATING PT. OPERATIONS =  9.10E+01

     CHECK POINT   START OF SOLVER    

     CHECK POINT  END OF SOLVER       

       ELAPSED USER TIME (SEC)      =   0.0000    
       ELAPSED SYSTEM TIME (SEC)    =   0.0000    
       ELAPSED TOTAL CPU TIME (SEC) =   0.0000    
       ELAPSED WALLCLOCK TIME (SEC) =          0

               CONVERGENCE CHECKS FOR EQUILIBRIUM ITERATION     1


 AVERAGE FORCE                       3.13       TIME AVG. FORCE        1.51    
 LARGEST RESIDUAL FORCE             5.528E-07   AT NODE          3   DOF  1
 LARGEST INCREMENT OF DISP.         1.260E-03   AT NODE          3   DOF  1
 LARGEST CORRECTION TO DISP.        4.691E-06   AT NODE          3   DOF  1
          THE FORCE     EQUILIBRIUM EQUATIONS HAVE CONVERGED

 ITERATION SUMMARY FOR THE INCREMENT:   1 TOTAL ITERATIONS, OF WHICH
   0 ARE SEVERE DISCONTINUITY ITERATIONS AND  1 ARE EQUILIBRIUM ITERATIONS.

 CURRENT VALUE OF MONITOR NODE          3 D.O.F.  1 IS   2.333E-02

 TIME INCREMENT COMPLETED  0.100    ,  FRACTION OF STEP COMPLETED  0.309    
 STEP TIME COMPLETED        3.40    ,  TOTAL TIME COMPLETED         3.40    


  INCREMENT    35 STARTS. ATTEMPT NUMBER  1, TIME INCREMENT  0.100    

  NUMBER OF EQUATIONS =         6     NUMBER OF RHS =    1
  NUMBER OF FLOATING PT. OPERATIONS =  9.10E+01

     CHECK POINT   START OF SOLVER    

     CHECK POINT  END OF SOLVER       

       ELAPSED USER TIME (SEC)      =   0.0000    
       ELAPSED SYSTEM TIME (SEC)    =   0.0000    
       ELAPSED TOTAL CPU TIME (SEC) =   0.0000    
       ELAPSED WALLCLOCK TIME (SEC) =          0

               CONVERGENCE CHECKS FOR EQUILIBRIUM ITERATION     1


 AVERAGE FORCE                       3.25       TIME AVG. FORCE        1.56    
 LARGEST RESIDUAL FORCE             5.565E-07   AT NODE          3   DOF  1
 LARGEST INCREMENT OF DISP.         1.265E-03   AT NODE          3   DOF  1
 LARGEST CORRECTION TO DISP.        4.722E-06   AT NODE          3   DOF  1
          THE FORCE     EQUILIBRIUM EQUATIONS HAVE CONVERGED

 ITERATION SUMMARY FOR THE INCREMENT:   1 TOTAL ITERATIONS, OF WHICH
   0 ARE SEVERE DISCONTINUITY ITERATIONS AND  1 ARE EQUILIBRIUM ITERATIONS.

 CURRENT VALUE OF MONITOR NODE          3 D.O.F.  1 IS   2.460E-02

 TIME INCREMENT COMPLETED  0.100    ,  FRACTION OF STEP COMPLETED  0.318    
 STEP TIME COMPLETED        3.50    ,  TOTAL TIME COMPLETED         3.50    


  INCREMENT    36 STARTS. ATTEMPT NUMBER  1, TIME INCREMENT  0.100    

  NUMBER OF EQUATIONS =         6     NUMBER OF RHS =    1
  NUMBER OF FLOATING PT. OPERATIONS =  9.10E+01

     CHECK POINT   START OF SOLVER    

     CHECK POINT  END OF SOLVER       

       ELAPSED USER TIME (SEC)      =   0.0000    
       ELAPSED SYSTEM TIME (SEC)    =   0.0000    
       ELAPSED TOTAL CPU TIME (SEC) =   0.0000    
       ELAPSED WALLCLOCK TIME (SEC) =          0

               CONVERGENCE CHECKS FOR EQUILIBRIUM ITERATION     1


 AVERAGE FORCE                       3.37       TIME AVG. FORCE        1.61    
 LARGEST RESIDUAL FORCE             5.603E-07   AT NODE          3   DOF  1
 LARGEST INCREMENT OF DISP.         1.269E-03   AT NODE          3   DOF  1
 LARGEST CORRECTION TO DISP.        4.754E-06   AT NODE          3   DOF  1
          THE FORCE     EQUILIBRIUM EQUATIONS HAVE CONVERGED

 ITERATION SUMMARY FOR THE INCREMENT:   1 TOTAL ITERATIONS, OF WHICH
   0 ARE SEVERE DISCONTINUITY ITERATIONS AND  1 ARE EQUILIBRIUM ITERATIONS.

 CURRENT VALUE OF MONITOR NODE          3 D.O.F.  1 IS   2.587E-02

 TIME INCREMENT COMPLETED  0.100    ,  FRACTION OF STEP COMPLETED  0.327    
 STEP TIME COMPLETED        3.60    ,  TOTAL TIME COMPLETED         3.60    


  INCREMENT    37 STARTS. ATTEMPT NUMBER  1, TIME INCREMENT  0.100    

  NUMBER OF EQUATIONS =         6     NUMBER OF RHS =    1
  NUMBER OF FLOATING PT. OPERATIONS =  9.10E+01

     CHECK POINT   START OF SOLVER    

     CHECK POINT  END OF SOLVER       

       ELAPSED USER TIME (SEC)      =   0.0000    
       ELAPSED SYSTEM TIME (SEC)    =   0.0000    
       ELAPSED TOTAL CPU TIME (SEC) =   0.0000    
       ELAPSED WALLCLOCK TIME (SEC) =          0

               CONVERGENCE CHECKS FOR EQUILIBRIUM ITERATION     1


 AVERAGE FORCE                       3.48       TIME AVG. FORCE        1.66    
 LARGEST RESIDUAL FORCE             5.641E-07   AT NODE          3   DOF  1
 LARGEST INCREMENT OF DISP.         1.274E-03   AT NODE          3   DOF  1
 LARGEST CORRECTION TO DISP.        4.786E-06   AT NODE          3   DOF  1
          THE FORCE     EQUILIBRIUM EQUATIONS HAVE CONVERGED

 ITERATION SUMMARY FOR THE INCREMENT:   1 TOTAL ITERATIONS, OF WHICH
   0 ARE SEVERE DISCONTINUITY ITERATIONS AND  1 ARE EQUILIBRIUM ITERATIONS.

 CURRENT VALUE OF MONITOR NODE          3 D.O.F.  1 IS   2.714E-02

 TIME INCREMENT COMPLETED  0.100    ,  FRACTION OF STEP COMPLETED  0.336    
 STEP TIME COMPLETED        3.70    ,  TOTAL TIME COMPLETED         3.70    


  INCREMENT    38 STARTS. ATTEMPT NUMBER  1, TIME INCREMENT  0.100    

  NUMBER OF EQUATIONS =         6     NUMBER OF RHS =    1
  NUMBER OF FLOATING PT. OPERATIONS =  9.10E+01

     CHECK POINT   START OF SOLVER    

     CHECK POINT  END OF SOLVER       

       ELAPSED USER TIME (SEC)      =   0.0000    
       ELAPSED SYSTEM TIME (SEC)    =   0.0000    
       ELAPSED TOTAL CPU TIME (SEC) =   0.0000    
       ELAPSED WALLCLOCK TIME (SEC) =          0

               CONVERGENCE CHECKS FOR EQUILIBRIUM ITERATION     1


 AVERAGE FORCE                       3.60       TIME AVG. FORCE        1.71    
 LARGEST RESIDUAL FORCE             5.679E-07   AT NODE          3   DOF  1
 LARGEST INCREMENT OF DISP.         1.279E-03   AT NODE          3   DOF  1
 LARGEST CORRECTION TO DISP.        4.818E-06   AT NODE          3   DOF  1
          THE FORCE     EQUILIBRIUM EQUATIONS HAVE CONVERGED

 ITERATION SUMMARY FOR THE INCREMENT:   1 TOTAL ITERATIONS, OF WHICH
   0 ARE SEVERE DISCONTINUITY ITERATIONS AND  1 ARE EQUILIBRIUM ITERATIONS.

 CURRENT VALUE OF MONITOR NODE          3 D.O.F.  1 IS   2.842E-02

 TIME INCREMENT COMPLETED  0.100    ,  FRACTION OF STEP COMPLETED  0.345    
 STEP TIME COMPLETED        3.80    ,  TOTAL TIME COMPLETED         3.80    


  INCREMENT    39 STARTS. ATTEMPT NUMBER  1, TIME INCREMENT  0.100    

  NUMBER OF EQUATIONS =         6     NUMBER OF RHS =    1
  NUMBER OF FLOATING PT. OPERATIONS =  9.10E+01

     CHECK POINT   START OF SOLVER    

     CHECK POINT  END OF SOLVER       

       ELAPSED USER TIME (SEC)      =   0.0000    
       ELAPSED SYSTEM TIME (SEC)    =   0.0000    
       ELAPSED TOTAL CPU TIME (SEC) =   0.0000    
       ELAPSED WALLCLOCK TIME (SEC) =          0

               CONVERGENCE CHECKS FOR EQUILIBRIUM ITERATION     1


 AVERAGE FORCE                       3.72       TIME AVG. FORCE        1.77    
 LARGEST RESIDUAL FORCE             5.718E-07   AT NODE          3   DOF  1
 LARGEST INCREMENT OF DISP.         1.284E-03   AT NODE          3   DOF  1
 LARGEST CORRECTION TO DISP.        4.851E-06   AT NODE          3   DOF  1
          THE FORCE     EQUILIBRIUM EQUATIONS HAVE CONVERGED

 ITERATION SUMMARY FOR THE INCREMENT:   1 TOTAL ITERATIONS, OF WHICH
   0 ARE SEVERE DISCONTINUITY ITERATIONS AND  1 ARE EQUILIBRIUM ITERATIONS.

 CURRENT VALUE OF MONITOR NODE          3 D.O.F.  1 IS   2.970E-02

 TIME INCREMENT COMPLETED  0.100    ,  FRACTION OF STEP COMPLETED  0.355    
 STEP TIME COMPLETED        3.90    ,  TOTAL TIME COMPLETED         3.90    


  INCREMENT    40 STARTS. ATTEMPT NUMBER  1, TIME INCREMENT  0.100    

  NUMBER OF EQUATIONS =         6     NUMBER OF RHS =    1
  NUMBER OF FLOATING PT. OPERATIONS =  9.10E+01

     CHECK POINT   START OF SOLVER    

     CHECK POINT  END OF SOLVER       

       ELAPSED USER TIME (SEC)      =   0.0000    
       ELAPSED SYSTEM TIME (SEC)    =   0.0000    
       ELAPSED TOTAL CPU TIME (SEC) =   0.0000    
       ELAPSED WALLCLOCK TIME (SEC) =          0

               CONVERGENCE CHECKS FOR EQUILIBRIUM ITERATION     1


 AVERAGE FORCE                       3.83       TIME AVG. FORCE        1.82    
 LARGEST RESIDUAL FORCE             5.757E-07   AT NODE          3   DOF  1
 LARGEST INCREMENT OF DISP.         1.289E-03   AT NODE          3   DOF  1
 LARGEST CORRECTION TO DISP.        4.884E-06   AT NODE          3   DOF  1
          THE FORCE     EQUILIBRIUM EQUATIONS HAVE CONVERGED

 ITERATION SUMMARY FOR THE INCREMENT:   1 TOTAL ITERATIONS, OF WHICH
   0 ARE SEVERE DISCONTINUITY ITERATIONS AND  1 ARE EQUILIBRIUM ITERATIONS.

 CURRENT VALUE OF MONITOR NODE          3 D.O.F.  1 IS   3.099E-02

 TIME INCREMENT COMPLETED  0.100    ,  FRACTION OF STEP COMPLETED  0.364    
 STEP TIME COMPLETED        4.00    ,  TOTAL TIME COMPLETED         4.00    


  INCREMENT    41 STARTS. ATTEMPT NUMBER  1, TIME INCREMENT  0.100    

  NUMBER OF EQUATIONS =         6     NUMBER OF RHS =    1
  NUMBER OF FLOATING PT. OPERATIONS =  9.10E+01

     CHECK POINT   START OF SOLVER    

     CHECK POINT  END OF SOLVER       

       ELAPSED USER TIME (SEC)      =   0.0000    
       ELAPSED SYSTEM TIME (SEC)    =   0.0000    
       ELAPSED TOTAL CPU TIME (SEC) =   0.0000    
       ELAPSED WALLCLOCK TIME (SEC) =          0

               CONVERGENCE CHECKS FOR EQUILIBRIUM ITERATION     1


 AVERAGE FORCE                       3.95       TIME AVG. FORCE        1.87    
 LARGEST RESIDUAL FORCE             5.796E-07   AT NODE          3   DOF  1
 LARGEST INCREMENT OF DISP.         1.294E-03   AT NODE          3   DOF  1
 LARGEST CORRECTION TO DISP.        4.917E-06   AT NODE          3   DOF  1
          THE FORCE     EQUILIBRIUM EQUATIONS HAVE CONVERGED

 ITERATION SUMMARY FOR THE INCREMENT:   1 TOTAL ITERATIONS, OF WHICH
   0 ARE SEVERE DISCONTINUITY ITERATIONS AND  1 ARE EQUILIBRIUM ITERATIONS.

 CURRENT VALUE OF MONITOR NODE          3 D.O.F.  1 IS   3.229E-02

 TIME INCREMENT COMPLETED  0.100    ,  FRACTION OF STEP COMPLETED  0.373    
 STEP TIME COMPLETED        4.10    ,  TOTAL TIME COMPLETED         4.10    


  INCREMENT    42 STARTS. ATTEMPT NUMBER  1, TIME INCREMENT  0.100    

  NUMBER OF EQUATIONS =         6     NUMBER OF RHS =    1
  NUMBER OF FLOATING PT. OPERATIONS =  9.10E+01

     CHECK POINT   START OF SOLVER    

     CHECK POINT  END OF SOLVER       

       ELAPSED USER TIME (SEC)      =   0.0000    
       ELAPSED SYSTEM TIME (SEC)    =   0.0000    
       ELAPSED TOTAL CPU TIME (SEC) =   0.0000    
       ELAPSED WALLCLOCK TIME (SEC) =          0

               CONVERGENCE CHECKS FOR EQUILIBRIUM ITERATION     1


 AVERAGE FORCE                       4.07       TIME AVG. FORCE        1.92    
 LARGEST RESIDUAL FORCE             5.836E-07   AT NODE          3   DOF  1
 LARGEST INCREMENT OF DISP.         1.299E-03   AT NODE          3   DOF  1
 LARGEST CORRECTION TO DISP.        4.951E-06   AT NODE          3   DOF  1
          THE FORCE     EQUILIBRIUM EQUATIONS HAVE CONVERGED

 ITERATION SUMMARY FOR THE INCREMENT:   1 TOTAL ITERATIONS, OF WHICH
   0 ARE SEVERE DISCONTINUITY ITERATIONS AND  1 ARE EQUILIBRIUM ITERATIONS.

 CURRENT VALUE OF MONITOR NODE          3 D.O.F.  1 IS   3.358E-02

 TIME INCREMENT COMPLETED  0.100    ,  FRACTION OF STEP COMPLETED  0.382    
 STEP TIME COMPLETED        4.20    ,  TOTAL TIME COMPLETED         4.20    


  INCREMENT    43 STARTS. ATTEMPT NUMBER  1, TIME INCREMENT  0.100    

  NUMBER OF EQUATIONS =         6     NUMBER OF RHS =    1
  NUMBER OF FLOATING PT. OPERATIONS =  9.10E+01

     CHECK POINT   START OF SOLVER    

     CHECK POINT  END OF SOLVER       

       ELAPSED USER TIME (SEC)      =   0.0000    
       ELAPSED SYSTEM TIME (SEC)    =   0.0000    
       ELAPSED TOTAL CPU TIME (SEC) =   0.0000    
       ELAPSED WALLCLOCK TIME (SEC) =          0

               CONVERGENCE CHECKS FOR EQUILIBRIUM ITERATION     1


 AVERAGE FORCE                       4.18       TIME AVG. FORCE        1.97    
 LARGEST RESIDUAL FORCE             5.877E-07   AT NODE          3   DOF  1
 LARGEST INCREMENT OF DISP.         1.304E-03   AT NODE          3   DOF  1
 LARGEST CORRECTION TO DISP.        4.985E-06   AT NODE          3   DOF  1
          THE FORCE     EQUILIBRIUM EQUATIONS HAVE CONVERGED

 ITERATION SUMMARY FOR THE INCREMENT:   1 TOTAL ITERATIONS, OF WHICH
   0 ARE SEVERE DISCONTINUITY ITERATIONS AND  1 ARE EQUILIBRIUM ITERATIONS.

 CURRENT VALUE OF MONITOR NODE          3 D.O.F.  1 IS   3.489E-02

 TIME INCREMENT COMPLETED  0.100    ,  FRACTION OF STEP COMPLETED  0.391    
 STEP TIME COMPLETED        4.30    ,  TOTAL TIME COMPLETED         4.30    


  INCREMENT    44 STARTS. ATTEMPT NUMBER  1, TIME INCREMENT  0.100    

  NUMBER OF EQUATIONS =         6     NUMBER OF RHS =    1
  NUMBER OF FLOATING PT. OPERATIONS =  9.10E+01

     CHECK POINT   START OF SOLVER    

     CHECK POINT  END OF SOLVER       

       ELAPSED USER TIME (SEC)      =   0.0000    
       ELAPSED SYSTEM TIME (SEC)    =   0.0000    
       ELAPSED TOTAL CPU TIME (SEC) =   0.0000    
       ELAPSED WALLCLOCK TIME (SEC) =          0

               CONVERGENCE CHECKS FOR EQUILIBRIUM ITERATION     1


 AVERAGE FORCE                       4.30       TIME AVG. FORCE        2.03    
 LARGEST RESIDUAL FORCE             5.918E-07   AT NODE          3   DOF  1
 LARGEST INCREMENT OF DISP.         1.309E-03   AT NODE          3   DOF  1
 LARGEST CORRECTION TO DISP.        5.019E-06   AT NODE          3   DOF  1
          THE FORCE     EQUILIBRIUM EQUATIONS HAVE CONVERGED

 ITERATION SUMMARY FOR THE INCREMENT:   1 TOTAL ITERATIONS, OF WHICH
   0 ARE SEVERE DISCONTINUITY ITERATIONS AND  1 ARE EQUILIBRIUM ITERATIONS.

 CURRENT VALUE OF MONITOR NODE          3 D.O.F.  1 IS   3.620E-02

 TIME INCREMENT COMPLETED  0.100    ,  FRACTION OF STEP COMPLETED  0.400    
 STEP TIME COMPLETED        4.40    ,  TOTAL TIME COMPLETED         4.40    


  INCREMENT    45 STARTS. ATTEMPT NUMBER  1, TIME INCREMENT  0.100    

  NUMBER OF EQUATIONS =         6     NUMBER OF RHS =    1
  NUMBER OF FLOATING PT. OPERATIONS =  9.10E+01

     CHECK POINT   START OF SOLVER    

     CHECK POINT  END OF SOLVER       

       ELAPSED USER TIME (SEC)      =   0.0000    
       ELAPSED SYSTEM TIME (SEC)    =   0.0000    
       ELAPSED TOTAL CPU TIME (SEC) =   0.0000    
       ELAPSED WALLCLOCK TIME (SEC) =          0

               CONVERGENCE CHECKS FOR EQUILIBRIUM ITERATION     1


 AVERAGE FORCE                       4.42       TIME AVG. FORCE        2.08    
 LARGEST RESIDUAL FORCE             5.959E-07   AT NODE          3   DOF  1
 LARGEST INCREMENT OF DISP.         1.314E-03   AT NODE          3   DOF  1
 LARGEST CORRECTION TO DISP.        5.054E-06   AT NODE          3   DOF  1
          THE FORCE     EQUILIBRIUM EQUATIONS HAVE CONVERGED

 ITERATION SUMMARY FOR THE INCREMENT:   1 TOTAL ITERATIONS, OF WHICH
   0 ARE SEVERE DISCONTINUITY ITERATIONS AND  1 ARE EQUILIBRIUM ITERATIONS.

 CURRENT VALUE OF MONITOR NODE          3 D.O.F.  1 IS   3.751E-02

 TIME INCREMENT COMPLETED  0.100    ,  FRACTION OF STEP COMPLETED  0.409    
 STEP TIME COMPLETED        4.50    ,  TOTAL TIME COMPLETED         4.50    


  INCREMENT    46 STARTS. ATTEMPT NUMBER  1, TIME INCREMENT  0.100    

  NUMBER OF EQUATIONS =         6     NUMBER OF RHS =    1
  NUMBER OF FLOATING PT. OPERATIONS =  9.10E+01

     CHECK POINT   START OF SOLVER    

     CHECK POINT  END OF SOLVER       

       ELAPSED USER TIME (SEC)      =   0.0000    
       ELAPSED SYSTEM TIME (SEC)    =   0.0000    
       ELAPSED TOTAL CPU TIME (SEC) =   0.0000    
       ELAPSED WALLCLOCK TIME (SEC) =          0

               CONVERGENCE CHECKS FOR EQUILIBRIUM ITERATION     1


 AVERAGE FORCE                       4.53       TIME AVG. FORCE        2.13    
 LARGEST RESIDUAL FORCE             6.000E-07   AT NODE          3   DOF  1
 LARGEST INCREMENT OF DISP.         1.319E-03   AT NODE          3   DOF  1
 LARGEST CORRECTION TO DISP.        5.089E-06   AT NODE          3   DOF  1
          THE FORCE     EQUILIBRIUM EQUATIONS HAVE CONVERGED

 ITERATION SUMMARY FOR THE INCREMENT:   1 TOTAL ITERATIONS, OF WHICH
   0 ARE SEVERE DISCONTINUITY ITERATIONS AND  1 ARE EQUILIBRIUM ITERATIONS.

 CURRENT VALUE OF MONITOR NODE          3 D.O.F.  1 IS   3.883E-02

 TIME INCREMENT COMPLETED  0.100    ,  FRACTION OF STEP COMPLETED  0.418    
 STEP TIME COMPLETED        4.60    ,  TOTAL TIME COMPLETED         4.60    


  INCREMENT    47 STARTS. ATTEMPT NUMBER  1, TIME INCREMENT  0.100    

  NUMBER OF EQUATIONS =         6     NUMBER OF RHS =    1
  NUMBER OF FLOATING PT. OPERATIONS =  9.10E+01

     CHECK POINT   START OF SOLVER    

     CHECK POINT  END OF SOLVER       

       ELAPSED USER TIME (SEC)      =   0.0000    
       ELAPSED SYSTEM TIME (SEC)    =   0.0000    
       ELAPSED TOTAL CPU TIME (SEC) =   0.0000    
       ELAPSED WALLCLOCK TIME (SEC) =          0

               CONVERGENCE CHECKS FOR EQUILIBRIUM ITERATION     1


 AVERAGE FORCE                       4.65       TIME AVG. FORCE        2.19    
 LARGEST RESIDUAL FORCE             6.043E-07   AT NODE          3   DOF  1
 LARGEST INCREMENT OF DISP.         1.324E-03   AT NODE          3   DOF  1
 LARGEST CORRECTION TO DISP.        5.124E-06   AT NODE          3   DOF  1
          THE FORCE     EQUILIBRIUM EQUATIONS HAVE CONVERGED

 ITERATION SUMMARY FOR THE INCREMENT:   1 TOTAL ITERATIONS, OF WHICH
   0 ARE SEVERE DISCONTINUITY ITERATIONS AND  1 ARE EQUILIBRIUM ITERATIONS.

 CURRENT VALUE OF MONITOR NODE          3 D.O.F.  1 IS   4.015E-02

 TIME INCREMENT COMPLETED  0.100    ,  FRACTION OF STEP COMPLETED  0.427    
 STEP TIME COMPLETED        4.70    ,  TOTAL TIME COMPLETED         4.70    


  INCREMENT    48 STARTS. ATTEMPT NUMBER  1, TIME INCREMENT  0.100    

  NUMBER OF EQUATIONS =         6     NUMBER OF RHS =    1
  NUMBER OF FLOATING PT. OPERATIONS =  9.10E+01

     CHECK POINT   START OF SOLVER    

     CHECK POINT  END OF SOLVER       

       ELAPSED USER TIME (SEC)      =   0.0000    
       ELAPSED SYSTEM TIME (SEC)    =   0.0000    
       ELAPSED TOTAL CPU TIME (SEC) =   0.0000    
       ELAPSED WALLCLOCK TIME (SEC) =          0

               CONVERGENCE CHECKS FOR EQUILIBRIUM ITERATION     1


 AVERAGE FORCE                       4.77       TIME AVG. FORCE        2.24    
 LARGEST RESIDUAL FORCE             6.085E-07   AT NODE          3   DOF  1
 LARGEST INCREMENT OF DISP.         1.329E-03   AT NODE          3   DOF  1
 LARGEST CORRECTION TO DISP.        5.160E-06   AT NODE          3   DOF  1
          THE FORCE     EQUILIBRIUM EQUATIONS HAVE CONVERGED

 ITERATION SUMMARY FOR THE INCREMENT:   1 TOTAL ITERATIONS, OF WHICH
   0 ARE SEVERE DISCONTINUITY ITERATIONS AND  1 ARE EQUILIBRIUM ITERATIONS.

 CURRENT VALUE OF MONITOR NODE          3 D.O.F.  1 IS   4.148E-02

 TIME INCREMENT COMPLETED  0.100    ,  FRACTION OF STEP COMPLETED  0.436    
 STEP TIME COMPLETED        4.80    ,  TOTAL TIME COMPLETED         4.80    


  INCREMENT    49 STARTS. ATTEMPT NUMBER  1, TIME INCREMENT  0.100    

  NUMBER OF EQUATIONS =         6     NUMBER OF RHS =    1
  NUMBER OF FLOATING PT. OPERATIONS =  9.10E+01

     CHECK POINT   START OF SOLVER    

     CHECK POINT  END OF SOLVER       

       ELAPSED USER TIME (SEC)      =   0.0000    
       ELAPSED SYSTEM TIME (SEC)    =   0.0000    
       ELAPSED TOTAL CPU TIME (SEC) =   0.0000    
       ELAPSED WALLCLOCK TIME (SEC) =          0

               CONVERGENCE CHECKS FOR EQUILIBRIUM ITERATION     1


 AVERAGE FORCE                       4.88       TIME AVG. FORCE        2.29    
 LARGEST RESIDUAL FORCE             6.128E-07   AT NODE          3   DOF  1
 LARGEST INCREMENT OF DISP.         1.334E-03   AT NODE          3   DOF  1
 LARGEST CORRECTION TO DISP.        5.196E-06   AT NODE          3   DOF  1
          THE FORCE     EQUILIBRIUM EQUATIONS HAVE CONVERGED

 ITERATION SUMMARY FOR THE INCREMENT:   1 TOTAL ITERATIONS, OF WHICH
   0 ARE SEVERE DISCONTINUITY ITERATIONS AND  1 ARE EQUILIBRIUM ITERATIONS.

 CURRENT VALUE OF MONITOR NODE          3 D.O.F.  1 IS   4.282E-02

 TIME INCREMENT COMPLETED  0.100    ,  FRACTION OF STEP COMPLETED  0.445    
 STEP TIME COMPLETED        4.90    ,  TOTAL TIME COMPLETED         4.90    


  INCREMENT    50 STARTS. ATTEMPT NUMBER  1, TIME INCREMENT  0.100    

  NUMBER OF EQUATIONS =         6     NUMBER OF RHS =    1
  NUMBER OF FLOATING PT. OPERATIONS =  9.10E+01

     CHECK POINT   START OF SOLVER    

     CHECK POINT  END OF SOLVER       

       ELAPSED USER TIME (SEC)      =   0.0000    
       ELAPSED SYSTEM TIME (SEC)    =   0.0000    
       ELAPSED TOTAL CPU TIME (SEC) =   0.0000    
       ELAPSED WALLCLOCK TIME (SEC) =          0

               CONVERGENCE CHECKS FOR EQUILIBRIUM ITERATION     1


 AVERAGE FORCE                       5.00       TIME AVG. FORCE        2.35    
 LARGEST RESIDUAL FORCE             6.172E-07   AT NODE          3   DOF  1
 LARGEST INCREMENT OF DISP.         1.339E-03   AT NODE          3   DOF  1
 LARGEST CORRECTION TO DISP.        5.233E-06   AT NODE          3   DOF  1
          THE FORCE     EQUILIBRIUM EQUATIONS HAVE CONVERGED

 ITERATION SUMMARY FOR THE INCREMENT:   1 TOTAL ITERATIONS, OF WHICH
   0 ARE SEVERE DISCONTINUITY ITERATIONS AND  1 ARE EQUILIBRIUM ITERATIONS.

 CURRENT VALUE OF MONITOR NODE          3 D.O.F.  1 IS   4.415E-02

 TIME INCREMENT COMPLETED  0.100    ,  FRACTION OF STEP COMPLETED  0.455    
 STEP TIME COMPLETED        5.00    ,  TOTAL TIME COMPLETED         5.00    


  INCREMENT    51 STARTS. ATTEMPT NUMBER  1, TIME INCREMENT  0.100    

  NUMBER OF EQUATIONS =         6     NUMBER OF RHS =    1
  NUMBER OF FLOATING PT. OPERATIONS =  9.10E+01

     CHECK POINT   START OF SOLVER    

     CHECK POINT  END OF SOLVER       

       ELAPSED USER TIME (SEC)      =   0.0000    
       ELAPSED SYSTEM TIME (SEC)    =   0.0000    
       ELAPSED TOTAL CPU TIME (SEC) =   0.0000    
       ELAPSED WALLCLOCK TIME (SEC) =          0

               CONVERGENCE CHECKS FOR EQUILIBRIUM ITERATION     1


 AVERAGE FORCE                       4.93       TIME AVG. FORCE        2.40    
 LARGEST RESIDUAL FORCE             9.598E-02   AT NODE          3   DOF  1
 LARGEST INCREMENT OF DISP.        -1.161E-04   AT NODE          3   DOF  1
 LARGEST CORRECTION TO DISP.       -1.456E-03   AT NODE          3   DOF  1
          FORCE     EQUILIBRIUM NOT ACHIEVED WITHIN TOLERANCE.

  NUMBER OF EQUATIONS =         6     NUMBER OF RHS =    1
  NUMBER OF FLOATING PT. OPERATIONS =  9.10E+01

     CHECK POINT   START OF SOLVER    

     CHECK POINT  END OF SOLVER       

       ELAPSED USER TIME (SEC)      =   0.0000    
       ELAPSED SYSTEM TIME (SEC)    =   0.0000    
       ELAPSED TOTAL CPU TIME (SEC) =   0.0000    
       ELAPSED WALLCLOCK TIME (SEC) =          0

               CONVERGENCE CHECKS FOR EQUILIBRIUM ITERATION     2


 AVERAGE FORCE                       4.99       TIME AVG. FORCE        2.40    
 LARGEST RESIDUAL FORCE             1.452E-05   AT NODE          3   DOF  1
 LARGEST INCREMENT OF DISP.        -1.097E-05   AT NODE          3   DOF  1
 LARGEST CORRECTION TO DISP.        1.052E-04   AT NODE          3   DOF  1
 ESTIMATE OF DISP.    CORRECTION    1.591E-08
 FORCE     EQUILIB. ACCEPTED BASED ON SMALL RESIDUAL AND ESTIMATED CORRECTION

 ITERATION SUMMARY FOR THE INCREMENT:   2 TOTAL ITERATIONS, OF WHICH
   0 ARE SEVERE DISCONTINUITY ITERATIONS AND  2 ARE EQUILIBRIUM ITERATIONS.

 CURRENT VALUE OF MONITOR NODE          3 D.O.F.  1 IS   4.414E-02

 TIME INCREMENT COMPLETED  0.100    ,  FRACTION OF STEP COMPLETED  0.464    
 STEP TIME COMPLETED        5.10    ,  TOTAL TIME COMPLETED         5.10    


  INCREMENT    52 STARTS. ATTEMPT NUMBER  1, TIME INCREMENT  0.100    

  NUMBER OF EQUATIONS =         6     NUMBER OF RHS =    1
  NUMBER OF FLOATING PT. OPERATIONS =  9.10E+01

     CHECK POINT   START OF SOLVER    

     CHECK POINT  END OF SOLVER       

       ELAPSED USER TIME (SEC)      =   0.0000    
       ELAPSED SYSTEM TIME (SEC)    =   0.0000    
       ELAPSED TOTAL CPU TIME (SEC) =   0.0000    
       ELAPSED WALLCLOCK TIME (SEC) =          0

               CONVERGENCE CHECKS FOR EQUILIBRIUM ITERATION     1


 AVERAGE FORCE                       4.98       TIME AVG. FORCE        2.45    
 LARGEST RESIDUAL FORCE            -3.025E-10   AT NODE          3   DOF  1
 LARGEST INCREMENT OF DISP.        -1.094E-05   AT NODE          3   DOF  1
 LARGEST CORRECTION TO DISP.        3.150E-08   AT NODE          3   DOF  1
          THE FORCE     EQUILIBRIUM RESPONSE WAS LINEAR IN THIS INCREMENT

 ITERATION SUMMARY FOR THE INCREMENT:   1 TOTAL ITERATIONS, OF WHICH
   0 ARE SEVERE DISCONTINUITY ITERATIONS AND  1 ARE EQUILIBRIUM ITERATIONS.

 CURRENT VALUE OF MONITOR NODE          3 D.O.F.  1 IS   4.413E-02

 TIME INCREMENT COMPLETED  0.100    ,  FRACTION OF STEP COMPLETED  0.473    
 STEP TIME COMPLETED        5.20    ,  TOTAL TIME COMPLETED         5.20    


  INCREMENT    53 STARTS. ATTEMPT NUMBER  1, TIME INCREMENT  0.100    

  NUMBER OF EQUATIONS =         6     NUMBER OF RHS =    1
  NUMBER OF FLOATING PT. OPERATIONS =  9.10E+01

     CHECK POINT   START OF SOLVER    

     CHECK POINT  END OF SOLVER       

       ELAPSED USER TIME (SEC)      =   0.0000    
       ELAPSED SYSTEM TIME (SEC)    =   0.0000    
       ELAPSED TOTAL CPU TIME (SEC) =   0.0000    
       ELAPSED WALLCLOCK TIME (SEC) =          0

               CONVERGENCE CHECKS FOR EQUILIBRIUM ITERATION     1


 AVERAGE FORCE                       4.97       TIME AVG. FORCE        2.50    
 LARGEST RESIDUAL FORCE             1.507E-10   AT NODE          3   DOF  1
 LARGEST INCREMENT OF DISP.        -1.096E-05   AT NODE          3   DOF  1
 LARGEST CORRECTION TO DISP.       -1.557E-08   AT NODE          3   DOF  1
          THE FORCE     EQUILIBRIUM RESPONSE WAS LINEAR IN THIS INCREMENT

 ITERATION SUMMARY FOR THE INCREMENT:   1 TOTAL ITERATIONS, OF WHICH
   0 ARE SEVERE DISCONTINUITY ITERATIONS AND  1 ARE EQUILIBRIUM ITERATIONS.

 CURRENT VALUE OF MONITOR NODE          3 D.O.F.  1 IS   4.412E-02

 TIME INCREMENT COMPLETED  0.100    ,  FRACTION OF STEP COMPLETED  0.482    
 STEP TIME COMPLETED        5.30    ,  TOTAL TIME COMPLETED         5.30    


  INCREMENT    54 STARTS. ATTEMPT NUMBER  1, TIME INCREMENT  0.100    

  NUMBER OF EQUATIONS =         6     NUMBER OF RHS =    1
  NUMBER OF FLOATING PT. OPERATIONS =  9.10E+01

     CHECK POINT   START OF SOLVER    

     CHECK POINT  END OF SOLVER       

       ELAPSED USER TIME (SEC)      =   0.0000    
       ELAPSED SYSTEM TIME (SEC)    =   0.0000    
       ELAPSED TOTAL CPU TIME (SEC) =   0.0000    
       ELAPSED WALLCLOCK TIME (SEC) =          0

               CONVERGENCE CHECKS FOR EQUILIBRIUM ITERATION     1


 AVERAGE FORCE                       4.96       TIME AVG. FORCE        2.54    
 LARGEST RESIDUAL FORCE            -2.750E-12   AT NODE          3   DOF  1
 LARGEST INCREMENT OF DISP.        -1.096E-05   AT NODE          3   DOF  1
 LARGEST CORRECTION TO DISP.        3.463E-10   AT NODE          3   DOF  1
          THE FORCE     EQUILIBRIUM RESPONSE WAS LINEAR IN THIS INCREMENT

 ITERATION SUMMARY FOR THE INCREMENT:   1 TOTAL ITERATIONS, OF WHICH
   0 ARE SEVERE DISCONTINUITY ITERATIONS AND  1 ARE EQUILIBRIUM ITERATIONS.

 CURRENT VALUE OF MONITOR NODE          3 D.O.F.  1 IS   4.411E-02

 TIME INCREMENT COMPLETED  0.100    ,  FRACTION OF STEP COMPLETED  0.491    
 STEP TIME COMPLETED        5.40    ,  TOTAL TIME COMPLETED         5.40    


  INCREMENT    55 STARTS. ATTEMPT NUMBER  1, TIME INCREMENT  0.100    

  NUMBER OF EQUATIONS =         6     NUMBER OF RHS =    1
  NUMBER OF FLOATING PT. OPERATIONS =  9.10E+01

     CHECK POINT   START OF SOLVER    

     CHECK POINT  END OF SOLVER       

       ELAPSED USER TIME (SEC)      =   0.0000    
       ELAPSED SYSTEM TIME (SEC)    =   0.0000    
       ELAPSED TOTAL CPU TIME (SEC) =   0.0000    
       ELAPSED WALLCLOCK TIME (SEC) =          0

               CONVERGENCE CHECKS FOR EQUILIBRIUM ITERATION     1


 AVERAGE FORCE                       4.95       TIME AVG. FORCE        2.59    
 LARGEST RESIDUAL FORCE            -3.682E-12   AT NODE          3   DOF  1
 LARGEST INCREMENT OF DISP.        -1.096E-05   AT NODE          3   DOF  1
 LARGEST CORRECTION TO DISP.        3.455E-10   AT NODE          3   DOF  1
          THE FORCE     EQUILIBRIUM RESPONSE WAS LINEAR IN THIS INCREMENT

 ITERATION SUMMARY FOR THE INCREMENT:   1 TOTAL ITERATIONS, OF WHICH
   0 ARE SEVERE DISCONTINUITY ITERATIONS AND  1 ARE EQUILIBRIUM ITERATIONS.

 CURRENT VALUE OF MONITOR NODE          3 D.O.F.  1 IS   4.410E-02

 TIME INCREMENT COMPLETED  0.100    ,  FRACTION OF STEP COMPLETED  0.500    
 STEP TIME COMPLETED        5.50    ,  TOTAL TIME COMPLETED         5.50    


  INCREMENT    56 STARTS. ATTEMPT NUMBER  1, TIME INCREMENT  0.100    

  NUMBER OF EQUATIONS =         6     NUMBER OF RHS =    1
  NUMBER OF FLOATING PT. OPERATIONS =  9.10E+01

     CHECK POINT   START OF SOLVER    

     CHECK POINT  END OF SOLVER       

       ELAPSED USER TIME (SEC)      =   0.0000    
       ELAPSED SYSTEM TIME (SEC)    =   0.0000    
       ELAPSED TOTAL CPU TIME (SEC) =   0.0000    
       ELAPSED WALLCLOCK TIME (SEC) =          0

               CONVERGENCE CHECKS FOR EQUILIBRIUM ITERATION     1


 AVERAGE FORCE                       4.94       TIME AVG. FORCE        2.63    
 LARGEST RESIDUAL FORCE            -2.696E-12   AT NODE          3   DOF  1
 LARGEST INCREMENT OF DISP.        -1.096E-05   AT NODE          3   DOF  1
 LARGEST CORRECTION TO DISP.        3.456E-10   AT NODE          3   DOF  1
          THE FORCE     EQUILIBRIUM RESPONSE WAS LINEAR IN THIS INCREMENT

 ITERATION SUMMARY FOR THE INCREMENT:   1 TOTAL ITERATIONS, OF WHICH
   0 ARE SEVERE DISCONTINUITY ITERATIONS AND  1 ARE EQUILIBRIUM ITERATIONS.

 CURRENT VALUE OF MONITOR NODE          3 D.O.F.  1 IS   4.409E-02

 TIME INCREMENT COMPLETED  0.100    ,  FRACTION OF STEP COMPLETED  0.509    
 STEP TIME COMPLETED        5.60    ,  TOTAL TIME COMPLETED         5.60    


  INCREMENT    57 STARTS. ATTEMPT NUMBER  1, TIME INCREMENT  0.100    

  NUMBER OF EQUATIONS =         6     NUMBER OF RHS =    1
  NUMBER OF FLOATING PT. OPERATIONS =  9.10E+01

     CHECK POINT   START OF SOLVER    

     CHECK POINT  END OF SOLVER       

       ELAPSED USER TIME (SEC)      =   0.0000    
       ELAPSED SYSTEM TIME (SEC)    =   0.0000    
       ELAPSED TOTAL CPU TIME (SEC) =   0.0000    
       ELAPSED WALLCLOCK TIME (SEC) =          0

               CONVERGENCE CHECKS FOR EQUILIBRIUM ITERATION     1


 AVERAGE FORCE                       4.93       TIME AVG. FORCE        2.67    
 LARGEST RESIDUAL FORCE            -3.564E-12   AT NODE          3   DOF  1
 LARGEST INCREMENT OF DISP.        -1.096E-05   AT NODE          3   DOF  1
 LARGEST CORRECTION TO DISP.        3.456E-10   AT NODE          3   DOF  1
          THE FORCE     EQUILIBRIUM RESPONSE WAS LINEAR IN THIS INCREMENT

 ITERATION SUMMARY FOR THE INCREMENT:   1 TOTAL ITERATIONS, OF WHICH
   0 ARE SEVERE DISCONTINUITY ITERATIONS AND  1 ARE EQUILIBRIUM ITERATIONS.

 CURRENT VALUE OF MONITOR NODE          3 D.O.F.  1 IS   4.408E-02

 TIME INCREMENT COMPLETED  0.100    ,  FRACTION OF STEP COMPLETED  0.518    
 STEP TIME COMPLETED        5.70    ,  TOTAL TIME COMPLETED         5.70    


  INCREMENT    58 STARTS. ATTEMPT NUMBER  1, TIME INCREMENT  0.100    

  NUMBER OF EQUATIONS =         6     NUMBER OF RHS =    1
  NUMBER OF FLOATING PT. OPERATIONS =  9.10E+01

     CHECK POINT   START OF SOLVER    

     CHECK POINT  END OF SOLVER       

       ELAPSED USER TIME (SEC)      =   0.0000    
       ELAPSED SYSTEM TIME (SEC)    =   0.0000    
       ELAPSED TOTAL CPU TIME (SEC) =   0.0000    
       ELAPSED WALLCLOCK TIME (SEC) =          0

               CONVERGENCE CHECKS FOR EQUILIBRIUM ITERATION     1


[...]
   0 ARE SEVERE DISCONTINUITY ITERATIONS AND  1 ARE EQUILIBRIUM ITERATIONS.

 CURRENT VALUE OF MONITOR NODE          3 D.O.F.  1 IS   5.246E-03

 TIME INCREMENT COMPLETED  0.100    ,  FRACTION OF STEP COMPLETED  0.873    
 STEP TIME COMPLETED        9.60    ,  TOTAL TIME COMPLETED         9.60    


  INCREMENT    97 STARTS. ATTEMPT NUMBER  1, TIME INCREMENT  0.100    

  NUMBER OF EQUATIONS =         6     NUMBER OF RHS =    1
  NUMBER OF FLOATING PT. OPERATIONS =  9.10E+01

     CHECK POINT   START OF SOLVER    

     CHECK POINT  END OF SOLVER       

       ELAPSED USER TIME (SEC)      =   0.0000    
       ELAPSED SYSTEM TIME (SEC)    =   0.0000    
       ELAPSED TOTAL CPU TIME (SEC) =   0.0000    
       ELAPSED WALLCLOCK TIME (SEC) =          0

               CONVERGENCE CHECKS FOR EQUILIBRIUM ITERATION     1


 AVERAGE FORCE                      0.937       TIME AVG. FORCE        2.31    
 LARGEST RESIDUAL FORCE             2.118E-08   AT NODE          3   DOF  1
 LARGEST INCREMENT OF DISP.         1.932E-04   AT NODE          3   DOF  1
 LARGEST CORRECTION TO DISP.        1.114E-07   AT NODE          3   DOF  1
          THE FORCE     EQUILIBRIUM RESPONSE WAS LINEAR IN THIS INCREMENT

 ITERATION SUMMARY FOR THE INCREMENT:   1 TOTAL ITERATIONS, OF WHICH
   0 ARE SEVERE DISCONTINUITY ITERATIONS AND  1 ARE EQUILIBRIUM ITERATIONS.

 CURRENT VALUE OF MONITOR NODE          3 D.O.F.  1 IS   5.439E-03

 TIME INCREMENT COMPLETED  0.100    ,  FRACTION OF STEP COMPLETED  0.882    
 STEP TIME COMPLETED        9.70    ,  TOTAL TIME COMPLETED         9.70    


  INCREMENT    98 STARTS. ATTEMPT NUMBER  1, TIME INCREMENT  0.100    

  NUMBER OF EQUATIONS =         6     NUMBER OF RHS =    1
  NUMBER OF FLOATING PT. OPERATIONS =  9.10E+01

     CHECK POINT   START OF SOLVER    

     CHECK POINT  END OF SOLVER       

       ELAPSED USER TIME (SEC)      =   0.0000    
       ELAPSED SYSTEM TIME (SEC)    =   0.0000    
       ELAPSED TOTAL CPU TIME (SEC) =   0.0000    
       ELAPSED WALLCLOCK TIME (SEC) =          0

               CONVERGENCE CHECKS FOR EQUILIBRIUM ITERATION     1


 AVERAGE FORCE                       1.13       TIME AVG. FORCE        2.30    
 LARGEST RESIDUAL FORCE             2.120E-08   AT NODE          3   DOF  1
 LARGEST INCREMENT OF DISP.         1.933E-04   AT NODE          3   DOF  1
 LARGEST CORRECTION TO DISP.        1.115E-07   AT NODE          3   DOF  1
          THE FORCE     EQUILIBRIUM RESPONSE WAS LINEAR IN THIS INCREMENT

 ITERATION SUMMARY FOR THE INCREMENT:   1 TOTAL ITERATIONS, OF WHICH
   0 ARE SEVERE DISCONTINUITY ITERATIONS AND  1 ARE EQUILIBRIUM ITERATIONS.

 CURRENT VALUE OF MONITOR NODE          3 D.O.F.  1 IS   5.632E-03

 TIME INCREMENT COMPLETED  0.100    ,  FRACTION OF STEP COMPLETED  0.891    
 STEP TIME COMPLETED        9.80    ,  TOTAL TIME COMPLETED         9.80    


  INCREMENT    99 STARTS. ATTEMPT NUMBER  1, TIME INCREMENT  0.100    

  NUMBER OF EQUATIONS =         6     NUMBER OF RHS =    1
  NUMBER OF FLOATING PT. OPERATIONS =  9.10E+01

     CHECK POINT   START OF SOLVER    

     CHECK POINT  END OF SOLVER       

       ELAPSED USER TIME (SEC)      =   0.0000    
       ELAPSED SYSTEM TIME (SEC)    =   0.0000    
       ELAPSED TOTAL CPU TIME (SEC) =   0.0000    
       ELAPSED WALLCLOCK TIME (SEC) =          0

               CONVERGENCE CHECKS FOR EQUILIBRIUM ITERATION     1


 AVERAGE FORCE                       1.32       TIME AVG. FORCE        2.29    
 LARGEST RESIDUAL FORCE             2.122E-08   AT NODE          3   DOF  1
 LARGEST INCREMENT OF DISP.         1.934E-04   AT NODE          3   DOF  1
 LARGEST CORRECTION TO DISP.        1.116E-07   AT NODE          3   DOF  1
          THE FORCE     EQUILIBRIUM RESPONSE WAS LINEAR IN THIS INCREMENT

 ITERATION SUMMARY FOR THE INCREMENT:   1 TOTAL ITERATIONS, OF WHICH
   0 ARE SEVERE DISCONTINUITY ITERATIONS AND  1 ARE EQUILIBRIUM ITERATIONS.

 CURRENT VALUE OF MONITOR NODE          3 D.O.F.  1 IS   5.826E-03

 TIME INCREMENT COMPLETED  0.100    ,  FRACTION OF STEP COMPLETED  0.900    
 STEP TIME COMPLETED        9.90    ,  TOTAL TIME COMPLETED         9.90    


  INCREMENT   100 STARTS. ATTEMPT NUMBER  1, TIME INCREMENT  0.100    

  NUMBER OF EQUATIONS =         6     NUMBER OF RHS =    1
  NUMBER OF FLOATING PT. OPERATIONS =  9.10E+01

     CHECK POINT   START OF SOLVER    

     CHECK POINT  END OF SOLVER       

       ELAPSED USER TIME (SEC)      =   0.0000    
       ELAPSED SYSTEM TIME (SEC)    =   0.0000    
       ELAPSED TOTAL CPU TIME (SEC) =   0.0000    
       ELAPSED WALLCLOCK TIME (SEC) =          0

               CONVERGENCE CHECKS FOR EQUILIBRIUM ITERATION     1


 AVERAGE FORCE                       1.51       TIME AVG. FORCE        2.28    
 LARGEST RESIDUAL FORCE             3.861E-05   AT NODE          3   DOF  1
 LARGEST INCREMENT OF DISP.         3.869E-04   AT NODE          3   DOF  1
 LARGEST CORRECTION TO DISP.        1.935E-04   AT NODE          3   DOF  1
 ESTIMATE OF DISP.    CORRECTION    3.960E-07
 FORCE     EQUILIB. ACCEPTED BASED ON SMALL RESIDUAL AND ESTIMATED CORRECTION

 ITERATION SUMMARY FOR THE INCREMENT:   1 TOTAL ITERATIONS, OF WHICH
   0 ARE SEVERE DISCONTINUITY ITERATIONS AND  1 ARE EQUILIBRIUM ITERATIONS.

 CURRENT VALUE OF MONITOR NODE          3 D.O.F.  1 IS   6.213E-03

 TIME INCREMENT COMPLETED  0.100    ,  FRACTION OF STEP COMPLETED  0.909    
 STEP TIME COMPLETED        10.0    ,  TOTAL TIME COMPLETED         10.0    


  INCREMENT   101 STARTS. ATTEMPT NUMBER  1, TIME INCREMENT  0.100    

  NUMBER OF EQUATIONS =         6     NUMBER OF RHS =    1
  NUMBER OF FLOATING PT. OPERATIONS =  9.10E+01

     CHECK POINT   START OF SOLVER    

     CHECK POINT  END OF SOLVER       

       ELAPSED USER TIME (SEC)      =  0.10000    
       ELAPSED SYSTEM TIME (SEC)    =   0.0000    
       ELAPSED TOTAL CPU TIME (SEC) =  0.10000    
       ELAPSED WALLCLOCK TIME (SEC) =          0

               CONVERGENCE CHECKS FOR EQUILIBRIUM ITERATION     1


 AVERAGE FORCE                       1.76       TIME AVG. FORCE        2.28    
 LARGEST RESIDUAL FORCE             7.694E-04   AT NODE          3   DOF  1
 LARGEST INCREMENT OF DISP.         2.562E-03   AT NODE          3   DOF  1
 LARGEST CORRECTION TO DISP.        2.175E-03   AT NODE          3   DOF  1
 ESTIMATE OF DISP.    CORRECTION    7.916E-06
 FORCE     EQUILIB. ACCEPTED BASED ON SMALL RESIDUAL AND ESTIMATED CORRECTION

 ITERATION SUMMARY FOR THE INCREMENT:   1 TOTAL ITERATIONS, OF WHICH
   0 ARE SEVERE DISCONTINUITY ITERATIONS AND  1 ARE EQUILIBRIUM ITERATIONS.

 CURRENT VALUE OF MONITOR NODE          3 D.O.F.  1 IS   8.775E-03

 TIME INCREMENT COMPLETED  0.100    ,  FRACTION OF STEP COMPLETED  0.918    
 STEP TIME COMPLETED        10.1    ,  TOTAL TIME COMPLETED         10.1    


  INCREMENT   102 STARTS. ATTEMPT NUMBER  1, TIME INCREMENT  0.100    

  NUMBER OF EQUATIONS =         6     NUMBER OF RHS =    1
  NUMBER OF FLOATING PT. OPERATIONS =  9.10E+01

     CHECK POINT   START OF SOLVER    

     CHECK POINT  END OF SOLVER       

       ELAPSED USER TIME (SEC)      =   0.0000    
       ELAPSED SYSTEM TIME (SEC)    =   0.0000    
       ELAPSED TOTAL CPU TIME (SEC) =   0.0000    
       ELAPSED WALLCLOCK TIME (SEC) =          0

               CONVERGENCE CHECKS FOR EQUILIBRIUM ITERATION     1


 AVERAGE FORCE                       2.01       TIME AVG. FORCE        2.28    
 LARGEST RESIDUAL FORCE             8.949E-06   AT NODE          3   DOF  1
 LARGEST INCREMENT OF DISP.         2.598E-03   AT NODE          3   DOF  1
 LARGEST CORRECTION TO DISP.        3.536E-05   AT NODE          3   DOF  1
 ESTIMATE OF DISP.    CORRECTION    9.319E-08
 FORCE     EQUILIB. ACCEPTED BASED ON SMALL RESIDUAL AND ESTIMATED CORRECTION

 ITERATION SUMMARY FOR THE INCREMENT:   1 TOTAL ITERATIONS, OF WHICH
   0 ARE SEVERE DISCONTINUITY ITERATIONS AND  1 ARE EQUILIBRIUM ITERATIONS.

 CURRENT VALUE OF MONITOR NODE          3 D.O.F.  1 IS   1.137E-02

 TIME INCREMENT COMPLETED  0.100    ,  FRACTION OF STEP COMPLETED  0.927    
 STEP TIME COMPLETED        10.2    ,  TOTAL TIME COMPLETED         10.2    


  INCREMENT   103 STARTS. ATTEMPT NUMBER  1, TIME INCREMENT  0.100    

  NUMBER OF EQUATIONS =         6     NUMBER OF RHS =    1
  NUMBER OF FLOATING PT. OPERATIONS =  9.10E+01

     CHECK POINT   START OF SOLVER    

     CHECK POINT  END OF SOLVER       

       ELAPSED USER TIME (SEC)      =   0.0000    
       ELAPSED SYSTEM TIME (SEC)    =   0.0000    
       ELAPSED TOTAL CPU TIME (SEC) =   0.0000    
       ELAPSED WALLCLOCK TIME (SEC) =          0

               CONVERGENCE CHECKS FOR EQUILIBRIUM ITERATION     1


 AVERAGE FORCE                       2.26       TIME AVG. FORCE        2.28    
 LARGEST RESIDUAL FORCE             3.108E-06   AT NODE          3   DOF  1
 LARGEST INCREMENT OF DISP.         2.610E-03   AT NODE          3   DOF  1
 LARGEST CORRECTION TO DISP.        1.237E-05   AT NODE          3   DOF  1
          THE FORCE     EQUILIBRIUM EQUATIONS HAVE CONVERGED

 ITERATION SUMMARY FOR THE INCREMENT:   1 TOTAL ITERATIONS, OF WHICH
   0 ARE SEVERE DISCONTINUITY ITERATIONS AND  1 ARE EQUILIBRIUM ITERATIONS.

 CURRENT VALUE OF MONITOR NODE          3 D.O.F.  1 IS   1.398E-02

 TIME INCREMENT COMPLETED  0.100    ,  FRACTION OF STEP COMPLETED  0.936    
 STEP TIME COMPLETED        10.3    ,  TOTAL TIME COMPLETED         10.3    


  INCREMENT   104 STARTS. ATTEMPT NUMBER  1, TIME INCREMENT  0.100    

  NUMBER OF EQUATIONS =         6     NUMBER OF RHS =    1
  NUMBER OF FLOATING PT. OPERATIONS =  9.10E+01

     CHECK POINT   START OF SOLVER    

     CHECK POINT  END OF SOLVER       

       ELAPSED USER TIME (SEC)      =   0.0000    
       ELAPSED SYSTEM TIME (SEC)    =   0.0000    
       ELAPSED TOTAL CPU TIME (SEC) =   0.0000    
       ELAPSED WALLCLOCK TIME (SEC) =          0

               CONVERGENCE CHECKS FOR EQUILIBRIUM ITERATION     1


 AVERAGE FORCE                       2.51       TIME AVG. FORCE        2.28    
 LARGEST RESIDUAL FORCE             5.129E-06   AT NODE          3   DOF  1
 LARGEST INCREMENT OF DISP.         2.630E-03   AT NODE          3   DOF  1
 LARGEST CORRECTION TO DISP.        2.039E-05   AT NODE          3   DOF  1
          THE FORCE     EQUILIBRIUM EQUATIONS HAVE CONVERGED

 ITERATION SUMMARY FOR THE INCREMENT:   1 TOTAL ITERATIONS, OF WHICH
   0 ARE SEVERE DISCONTINUITY ITERATIONS AND  1 ARE EQUILIBRIUM ITERATIONS.

 CURRENT VALUE OF MONITOR NODE          3 D.O.F.  1 IS   1.661E-02

 TIME INCREMENT COMPLETED  0.100    ,  FRACTION OF STEP COMPLETED  0.945    
 STEP TIME COMPLETED        10.4    ,  TOTAL TIME COMPLETED         10.4    


  INCREMENT   105 STARTS. ATTEMPT NUMBER  1, TIME INCREMENT  0.100    

  NUMBER OF EQUATIONS =         6     NUMBER OF RHS =    1
  NUMBER OF FLOATING PT. OPERATIONS =  9.10E+01

     CHECK POINT   START OF SOLVER    

     CHECK POINT  END OF SOLVER       

       ELAPSED USER TIME (SEC)      =   0.0000    
       ELAPSED SYSTEM TIME (SEC)    =   0.0000    
       ELAPSED TOTAL CPU TIME (SEC) =   0.0000    
       ELAPSED WALLCLOCK TIME (SEC) =          0

               CONVERGENCE CHECKS FOR EQUILIBRIUM ITERATION     1


 AVERAGE FORCE                       2.75       TIME AVG. FORCE        2.28    
 LARGEST RESIDUAL FORCE             5.228E-06   AT NODE          3   DOF  1
 LARGEST INCREMENT OF DISP.         2.651E-03   AT NODE          3   DOF  1
 LARGEST CORRECTION TO DISP.        2.078E-05   AT NODE          3   DOF  1
          THE FORCE     EQUILIBRIUM EQUATIONS HAVE CONVERGED

 ITERATION SUMMARY FOR THE INCREMENT:   1 TOTAL ITERATIONS, OF WHICH
   0 ARE SEVERE DISCONTINUITY ITERATIONS AND  1 ARE EQUILIBRIUM ITERATIONS.

 CURRENT VALUE OF MONITOR NODE          3 D.O.F.  1 IS   1.926E-02

 TIME INCREMENT COMPLETED  0.100    ,  FRACTION OF STEP COMPLETED  0.955    
 STEP TIME COMPLETED        10.5    ,  TOTAL TIME COMPLETED         10.5    


  INCREMENT   106 STARTS. ATTEMPT NUMBER  1, TIME INCREMENT  0.100    

  NUMBER OF EQUATIONS =         6     NUMBER OF RHS =    1
  NUMBER OF FLOATING PT. OPERATIONS =  9.10E+01

     CHECK POINT   START OF SOLVER    

     CHECK POINT  END OF SOLVER       

       ELAPSED USER TIME (SEC)      =   0.0000    
       ELAPSED SYSTEM TIME (SEC)    =   0.0000    
       ELAPSED TOTAL CPU TIME (SEC) =   0.0000    
       ELAPSED WALLCLOCK TIME (SEC) =          0

               CONVERGENCE CHECKS FOR EQUILIBRIUM ITERATION     1


 AVERAGE FORCE                       3.00       TIME AVG. FORCE        2.29    
 LARGEST RESIDUAL FORCE             5.298E-06   AT NODE          3   DOF  1
 LARGEST INCREMENT OF DISP.         2.672E-03   AT NODE          3   DOF  1
 LARGEST CORRECTION TO DISP.        2.105E-05   AT NODE          3   DOF  1
          THE FORCE     EQUILIBRIUM EQUATIONS HAVE CONVERGED

 ITERATION SUMMARY FOR THE INCREMENT:   1 TOTAL ITERATIONS, OF WHICH
   0 ARE SEVERE DISCONTINUITY ITERATIONS AND  1 ARE EQUILIBRIUM ITERATIONS.

 CURRENT VALUE OF MONITOR NODE          3 D.O.F.  1 IS   2.194E-02

 TIME INCREMENT COMPLETED  0.100    ,  FRACTION OF STEP COMPLETED  0.964    
 STEP TIME COMPLETED        10.6    ,  TOTAL TIME COMPLETED         10.6    


  INCREMENT   107 STARTS. ATTEMPT NUMBER  1, TIME INCREMENT  0.100    

  NUMBER OF EQUATIONS =         6     NUMBER OF RHS =    1
  NUMBER OF FLOATING PT. OPERATIONS =  9.10E+01

     CHECK POINT   START OF SOLVER    

     CHECK POINT  END OF SOLVER       

       ELAPSED USER TIME (SEC)      =   0.0000    
       ELAPSED SYSTEM TIME (SEC)    =   0.0000    
       ELAPSED TOTAL CPU TIME (SEC) =   0.0000    
       ELAPSED WALLCLOCK TIME (SEC) =          0

               CONVERGENCE CHECKS FOR EQUILIBRIUM ITERATION     1


 AVERAGE FORCE                       3.25       TIME AVG. FORCE        2.30    
 LARGEST RESIDUAL FORCE             5.373E-06   AT NODE          3   DOF  1
 LARGEST INCREMENT OF DISP.         2.694E-03   AT NODE          3   DOF  1
 LARGEST CORRECTION TO DISP.        2.135E-05   AT NODE          3   DOF  1
          THE FORCE     EQUILIBRIUM EQUATIONS HAVE CONVERGED

 ITERATION SUMMARY FOR THE INCREMENT:   1 TOTAL ITERATIONS, OF WHICH
   0 ARE SEVERE DISCONTINUITY ITERATIONS AND  1 ARE EQUILIBRIUM ITERATIONS.

 CURRENT VALUE OF MONITOR NODE          3 D.O.F.  1 IS   2.463E-02

 TIME INCREMENT COMPLETED  0.100    ,  FRACTION OF STEP COMPLETED  0.973    
 STEP TIME COMPLETED        10.7    ,  TOTAL TIME COMPLETED         10.7    


  INCREMENT   108 STARTS. ATTEMPT NUMBER  1, TIME INCREMENT  0.100    

  NUMBER OF EQUATIONS =         6     NUMBER OF RHS =    1
  NUMBER OF FLOATING PT. OPERATIONS =  9.10E+01

     CHECK POINT   START OF SOLVER    

     CHECK POINT  END OF SOLVER       

       ELAPSED USER TIME (SEC)      =   0.0000    
       ELAPSED SYSTEM TIME (SEC)    =   0.0000    
       ELAPSED TOTAL CPU TIME (SEC) =   0.0000    
       ELAPSED WALLCLOCK TIME (SEC) =          0

               CONVERGENCE CHECKS FOR EQUILIBRIUM ITERATION     1


 AVERAGE FORCE                       3.50       TIME AVG. FORCE        2.31    
 LARGEST RESIDUAL FORCE             5.451E-06   AT NODE          3   DOF  1
 LARGEST INCREMENT OF DISP.         2.715E-03   AT NODE          3   DOF  1
 LARGEST CORRECTION TO DISP.        2.166E-05   AT NODE          3   DOF  1
          THE FORCE     EQUILIBRIUM EQUATIONS HAVE CONVERGED

 ITERATION SUMMARY FOR THE INCREMENT:   1 TOTAL ITERATIONS, OF WHICH
   0 ARE SEVERE DISCONTINUITY ITERATIONS AND  1 ARE EQUILIBRIUM ITERATIONS.

 CURRENT VALUE OF MONITOR NODE          3 D.O.F.  1 IS   2.734E-02

 TIME INCREMENT COMPLETED  0.100    ,  FRACTION OF STEP COMPLETED  0.982    
 STEP TIME COMPLETED        10.8    ,  TOTAL TIME COMPLETED         10.8    


  INCREMENT   109 STARTS. ATTEMPT NUMBER  1, TIME INCREMENT  0.100    

  NUMBER OF EQUATIONS =         6     NUMBER OF RHS =    1
  NUMBER OF FLOATING PT. OPERATIONS =  9.10E+01

     CHECK POINT   START OF SOLVER    

     CHECK POINT  END OF SOLVER       

       ELAPSED USER TIME (SEC)      =   0.0000    
       ELAPSED SYSTEM TIME (SEC)    =   0.0000    
       ELAPSED TOTAL CPU TIME (SEC) =   0.0000    
       ELAPSED WALLCLOCK TIME (SEC) =          0

               CONVERGENCE CHECKS FOR EQUILIBRIUM ITERATION     1


 AVERAGE FORCE                       3.75       TIME AVG. FORCE        2.32    
 LARGEST RESIDUAL FORCE             5.530E-06   AT NODE          3   DOF  1
 LARGEST INCREMENT OF DISP.         2.737E-03   AT NODE          3   DOF  1
 LARGEST CORRECTION TO DISP.        2.197E-05   AT NODE          3   DOF  1
          THE FORCE     EQUILIBRIUM EQUATIONS HAVE CONVERGED

 ITERATION SUMMARY FOR THE INCREMENT:   1 TOTAL ITERATIONS, OF WHICH
   0 ARE SEVERE DISCONTINUITY ITERATIONS AND  1 ARE EQUILIBRIUM ITERATIONS.

 CURRENT VALUE OF MONITOR NODE          3 D.O.F.  1 IS   3.008E-02

 TIME INCREMENT COMPLETED  0.100    ,  FRACTION OF STEP COMPLETED  0.991    
 STEP TIME COMPLETED        10.9    ,  TOTAL TIME COMPLETED         10.9    


  INCREMENT   110 STARTS. ATTEMPT NUMBER  1, TIME INCREMENT  0.100    

  NUMBER OF EQUATIONS =         6     NUMBER OF RHS =    1
  NUMBER OF FLOATING PT. OPERATIONS =  9.10E+01

     CHECK POINT   START OF SOLVER    

     CHECK POINT  END OF SOLVER       

       ELAPSED USER TIME (SEC)      =   0.0000    
       ELAPSED SYSTEM TIME (SEC)    =   0.0000    
       ELAPSED TOTAL CPU TIME (SEC) =   0.0000    
       ELAPSED WALLCLOCK TIME (SEC) =          0

               CONVERGENCE CHECKS FOR EQUILIBRIUM ITERATION     1


 AVERAGE FORCE                       4.00       TIME AVG. FORCE        2.34    
 LARGEST RESIDUAL FORCE             5.611E-06   AT NODE          3   DOF  1
 LARGEST INCREMENT OF DISP.         2.759E-03   AT NODE          3   DOF  1
 LARGEST CORRECTION TO DISP.        2.229E-05   AT NODE          3   DOF  1
          THE FORCE     EQUILIBRIUM EQUATIONS HAVE CONVERGED

 ITERATION SUMMARY FOR THE INCREMENT:   1 TOTAL ITERATIONS, OF WHICH
   0 ARE SEVERE DISCONTINUITY ITERATIONS AND  1 ARE EQUILIBRIUM ITERATIONS.

 CURRENT VALUE OF MONITOR NODE          3 D.O.F.  1 IS   3.284E-02

 TIME INCREMENT COMPLETED  0.100    ,  FRACTION OF STEP COMPLETED   1.00    
 STEP TIME COMPLETED        11.0    ,  TOTAL TIME COMPLETED         11.0    


          THE ANALYSIS HAS BEEN COMPLETED



     ANALYSIS SUMMARY:
     TOTAL OF        110  INCREMENTS
                       0  CUTBACKS IN AUTOMATIC INCREMENTATION
                     112  ITERATIONS INCLUDING CONTACT ITERATIONS IF PRESENT
                     112  PASSES THROUGH THE EQUATION SOLVER OF WHICH 
                     112  INVOLVE MATRIX DECOMPOSITION, INCLUDING
                       0  DECOMPOSITION(S) OF THE MASS MATRIX
                       1  REORDERING OF EQUATIONS TO MINIMIZE WAVEFRONT
                       0  ADDITIONAL RESIDUAL EVALUATIONS FOR LINE SEARCHES
                       0  ADDITIONAL OPERATOR EVALUATIONS FOR LINE SEARCHES
                       0  WARNING MESSAGES DURING USER INPUT PROCESSING
                      15  WARNING MESSAGES DURING ANALYSIS
                       0  ANALYSIS WARNINGS ARE NUMERICAL PROBLEM MESSAGES
                      15  ANALYSIS WARNINGS ARE NEGATIVE EIGENVALUE MESSAGES
                       0  ERROR MESSAGES



     JOB TIME SUMMARY
       USER TIME (SEC)      =   1.4000    
       SYSTEM TIME (SEC)    =  0.60000    
       TOTAL CPU TIME (SEC) =   2.0000    
       WALLCLOCK TIME (SEC) =          3
