*Heading
** Job name: ME759_Assign1_part_d_CPE4_FineMesh Model name: ME759_Assign1_Part_d_CPE4
** Generated by: Abaqus/CAE 2018
*Preprint, echo=NO, model=NO, history=NO, contact=NO
**
** PARTS
**
*Part, name=Part-1
*Node
      1,           2.,          2.5
      2,           0.,          2.5
      3,           0.,   1.96341467
      4,   1.73865283,   1.69610023
      5,           0.,          0.5
      6,  0.357050806,  0.350021034
      7,          0.5,           0.
      8,           2.,           0.
      9,           5.,           0.
     10,           5.,   1.95000005
     11,           5.,          2.5
     12,   1.95000005,          2.5
     13,   1.89999998,          2.5
     14,   1.85000002,          2.5
     15,   1.79999995,          2.5
     16,         1.75,          2.5
     17,   1.70000005,          2.5
     18,   1.64999998,          2.5
     19,   1.60000002,          2.5
     20,   1.54999995,          2.5
** ... 5971 like lines cut
*Element, type=CPS4R
   1,    1,   12,  537,  109
   2,   12,   13,  538,  537
   3,   13,   14,  539,  538
   4,   14,   15,  540,  539
   5,   15,   16,  541,  540
   6,   16,   17,  542,  541
   7,   17,   18,  543,  542
   8,   18,   19,  544,  543
   9,   19,   20,  545,  544
  10,   20,   21,  546,  545
  11,   21,   22,  547,  546
  12,   22,   23,  548,  547
  13,   23,   24,  549,  548
  14,   24,   25,  550,  549
  15,   25,   26,  551,  550
  16,   26,   27,  552,  551
  17,   27,   28,  553,  552
  18,   28,   29,  554,  553
  19,   29,   30,  555,  554
  20,   30,   31,  556,  555
** ... 5790 like lines cut
*Nset, nset=Set-1, generate
    1,  5991,     1
*Elset, elset=Set-1, generate
    1,  5810,     1
*Nset, nset=Plate_NodesAlongXAxis
   7,   8,   9, 245, 246, 247, 248, 249, 250, 251, 252, 253, 254, 255, 256, 257
 258, 259, 260, 261, 262, 263, 264, 265, 266, 267, 268, 269, 270, 271, 272, 273
 312, 313, 314, 315, 316, 317, 318, 319, 320, 321, 322, 323, 324, 325, 326, 327
 328, 329, 330, 331, 332, 333, 334, 335, 336, 337, 338, 339, 340, 341, 342, 343
 344, 345, 346, 347, 348, 349, 350, 351, 352, 353, 354, 355, 356, 357, 358, 359
 360, 361, 362, 363, 364, 365, 366, 367, 368, 369, 370
*Elset, elset=Plate_NodesAlongXAxis
 1679, 1718, 1757, 1796, 1835, 1874, 1913, 1952, 1991, 2030, 2069, 2108, 2147, 2186, 2225, 2264
 2303, 2342, 2381, 2420, 2459, 2498, 2537, 2576, 2615, 2654, 2693, 2732, 2771, 2810, 2811, 2812
 2813, 2814, 2815, 2816, 2817, 2818, 2819, 2820, 2821, 2822, 2823, 2824, 2825, 2826, 2827, 2828
 2829, 2830, 2831, 2832, 2833, 2834, 2835, 2836, 2837, 2838, 2839, 2840, 2841, 2842, 2843, 2844
 2845, 2846, 2847, 2848, 2849, 2850, 2851, 2852, 2853, 2854, 2855, 2856, 2857, 2858, 2859, 2860
 2861, 2862, 2863, 2864, 2865, 2866, 2867, 2868, 2869, 2870
*Nset, nset=Plate_NodesAlongYAxis
   2,   3,   5,  51,  52,  53,  54,  55,  56,  57,  58,  59,  60, 110, 111, 112
 113, 114, 115, 116, 117, 118, 119, 120, 121, 122, 123, 124, 125, 126, 127, 128
 129, 130, 131, 132, 133, 134, 135, 136, 137, 138
*Elset, elset=Plate_NodesAlongYAxis
  40,  80, 120, 160, 200, 240, 280, 320, 360, 400, 440, 441, 442, 443, 444, 445
 446, 447, 448, 449, 450, 451, 452, 453, 454, 455, 456, 457, 458, 459, 460, 461
 462, 463, 464, 465, 466, 467, 468, 469, 470
*Nset, nset=Plate_NodesALongXAxis_nset, unsorted
   7, 245, 246, 247, 248, 249, 250, 251, 252, 253, 254, 255, 256, 257, 258, 259
 260, 261, 262, 263, 264, 265, 266, 267, 268, 269, 270, 271, 272, 273,   8, 312
 313, 314, 315, 316, 317, 318, 319, 320, 321, 322, 323, 324, 325, 326, 327, 328
 329, 330, 331, 332, 333, 334, 335, 336, 337, 338, 339, 340, 341, 342, 343, 344
 345, 346, 347, 348, 349, 350, 351, 352, 353, 354, 355, 356, 357, 358, 359, 360
 361, 362, 363, 364, 365, 366, 367, 368, 369, 370,   9
*Nset, nset=Plate_nodesAlongYAxis_nset, unsorted
   5, 138, 137, 136, 135, 134, 133, 132, 131, 130, 129, 128, 127, 126, 125, 124
 123, 122, 121, 120, 119, 118, 117, 116, 115, 114, 113, 112, 111, 110,   3,  60
  59,  58,  57,  56,  55,  54,  53,  52,  51,   2
** Section: Section-1
*Solid Section, elset=Set-1, material=Material-1
,
*End Part
**  
**
** ASSEMBLY
**
*Assembly, name=Assembly
**  
*Instance, name=Part-1-1, part=Part-1
*End Instance
**  
*Nset, nset=BC1_Nodes, instance=Part-1-1
   7,   8,   9, 245, 246, 247, 248, 249, 250, 251, 252, 253, 254, 255, 256, 257
 258, 259, 260, 261, 262, 263, 264, 265, 266, 267, 268, 269, 270, 271, 272, 273
 312, 313, 314, 315, 316, 317, 318, 319, 320, 321, 322, 323, 324, 325, 326, 327
 328, 329, 330, 331, 332, 333, 334, 335, 336, 337, 338, 339, 340, 341, 342, 343
 344, 345, 346, 347, 348, 349, 350, 351, 352, 353, 354, 355, 356, 357, 358, 359
 360, 361, 362, 363, 364, 365, 366, 367, 368, 369, 370
*Elset, elset=BC1_Nodes, instance=Part-1-1
 1679, 1718, 1757, 1796, 1835, 1874, 1913, 1952, 1991, 2030, 2069, 2108, 2147, 2186, 2225, 2264
 2303, 2342, 2381, 2420, 2459, 2498, 2537, 2576, 2615, 2654, 2693, 2732, 2771, 2810, 2811, 2812
 2813, 2814, 2815, 2816, 2817, 2818, 2819, 2820, 2821, 2822, 2823, 2824, 2825, 2826, 2827, 2828
 2829, 2830, 2831, 2832, 2833, 2834, 2835, 2836, 2837, 2838, 2839, 2840, 2841, 2842, 2843, 2844
 2845, 2846, 2847, 2848, 2849, 2850, 2851, 2852, 2853, 2854, 2855, 2856, 2857, 2858, 2859, 2860
 2861, 2862, 2863, 2864, 2865, 2866, 2867, 2868, 2869, 2870
*Nset, nset=BC2_Nodes, instance=Part-1-1
   2,   3,   5,  51,  52,  53,  54,  55,  56,  57,  58,  59,  60, 110, 111, 112
 113, 114, 115, 116, 117, 118, 119, 120, 121, 122, 123, 124, 125, 126, 127, 128
 129, 130, 131, 132, 133, 134, 135, 136, 137, 138
*Elset, elset=BC2_Nodes, instance=Part-1-1
  40,  80, 120, 160, 200, 240, 280, 320, 360, 400, 440, 441, 442, 443, 444, 445
 446, 447, 448, 449, 450, 451, 452, 453, 454, 455, 456, 457, 458, 459, 460, 461
 462, 463, 464, 465, 466, 467, 468, 469, 470
*Elset, elset=_Surf-1_S2, internal, instance=Part-1-1, generate
 2870,  5150,    60
*Elset, elset=_Surf-1_S1, internal, instance=Part-1-1, generate
 5151,  5161,     1
*Surface, type=ELEMENT, name=Surf-1
_Surf-1_S2, S2
_Surf-1_S1, S1
*End Assembly
** 
** MATERIALS
** 
*Material, name=Material-1
*Elastic
100., 0.3
** ----------------------------------------------------------------
** 
** STEP: Step-1
** 
*Step, name=Step-1, nlgeom=NO
*Static
1., 1., 1e-05, 1.
** 
** BOUNDARY CONDITIONS
** 
** Name: BC-1 Type: Displacement/Rotation
*Boundary
BC1_Nodes, 2, 2
** Name: BC-2 Type: Displacement/Rotation
*Boundary
BC2_Nodes, 1, 1
** 
** LOADS
** 
** Name: Load-1   Type: Pressure
*Dsload
Surf-1, P, -1.
** 
** OUTPUT REQUESTS
** 
*Restart, write, frequency=0
** 
** FIELD OUTPUT: F-Output-1
** 
*Output, field, variable=PRESELECT
** 
** HISTORY OUTPUT: H-Output-1
** 
*Output, history, variable=PRESELECT
*End Step
