1

   Abaqus 3DEXPERIENCE R2018x                                  Date 05-Apr-2022   Time 21:08:41
   For use by Supplied by Team-SolidSQUAD under license from Dassault Systemes or its subsidiary.

                                                                                 
                                                                                 
 STEP    1     INCREMENT     1     STEP TIME    0.00    


                        S T E P       1     S T A T I C   A N A L Y S I S


                                                                                          

          FIXED TIME INCREMENTS
          TIME INCREMENT IS                                    1.000E-02
          TIME PERIOD IS                                        11.0    

     LINEAR EQUATION SOLVER TYPE         DIRECT SPARSE

 CONVERGENCE TOLERANCE PARAMETERS FOR FORCE    
     CRITERION FOR RESIDUAL FORCE     FOR A NONLINEAR PROBLEM          5.000E-03
     CRITERION FOR DISP.    CORRECTION IN A NONLINEAR PROBLEM          1.000E-02
     INITIAL VALUE OF TIME AVERAGE FORCE                               1.000E-02
     AVERAGE FORCE     IS TIME AVERAGE FORCE    
     ALTERNATE CRIT. FOR RESIDUAL FORCE     FOR A NONLINEAR PROBLEM    2.000E-02
     CRITERION FOR ZERO FORCE     RELATIVE TO TIME AVRG. FORCE         1.000E-05
     CRITERION FOR RESIDUAL FORCE     WHEN THERE IS ZERO FLUX          1.000E-05
     CRITERION FOR DISP.    CORRECTION WHEN THERE IS ZERO FLUX         1.000E-03
     CRITERION FOR RESIDUAL FORCE     FOR A LINEAR INCREMENT           1.000E-08
     FIELD CONVERSION RATIO                                             1.00    
     CRITERION FOR ZERO FORCE     REL. TO TIME AVRG. MAX. FORCE        1.000E-05
     CRITERION FOR ZERO DISP.    RELATIVE TO CHARACTERISTIC LENGTH     1.000E-08

     VOLUMETRIC STRAIN COMPATIBILITY TOLERANCE FOR HYBRID SOLIDS       1.000E-05
     AXIAL STRAIN COMPATIBILITY TOLERANCE FOR HYBRID BEAMS             1.000E-05
     TRANS. SHEAR STRAIN COMPATIBILITY TOLERANCE FOR HYBRID BEAMS      1.000E-05
     SOFT CONTACT CONSTRAINT COMPATIBILITY TOLERANCE FOR P>P0          5.000E-03
     SOFT CONTACT CONSTRAINT COMPATIBILITY TOLERANCE FOR P=0.0         0.100    
     CONTACT FORCE ERROR TOLERANCE FOR CONVERT SDI=YES                 1.00    
     DISPLACEMENT COMPATIBILITY TOLERANCE FOR DCOUP ELEMENTS           1.000E-05
     ROTATION COMPATIBILITY TOLERANCE FOR DCOUP ELEMENTS               1.000E-05

 EQUILIBRIUM WILL BE CHECKED FOR SEVERE DISCONTINUITY ITERATIONS

 ITERATION CONTROL PARAMETERS:
     FIRST EQUILIBRIUM ITERATION FOR CONSECUTIVE DIVERGENCE CHECK              4
     EQUILIBRIUM ITERATION AFTER WHICH ALTERNATE RESIDUAL IS USED              9
     MAXIMUM EQUILIBRIUM ITERATIONS ALLOWED                                   16
     MAXIMUM ITERATIONS FOR SEVERE DISCONTINUITIES                            12
     GLOBAL STABILIZATION CONTROL IS NOT USED

          PRINT OF INCREMENT NUMBER, TIME, ETC., EVERY    1  INCREMENTS

     THE MAXIMUM NUMBER OF INCREMENTS IN THIS STEP IS                 *******

     LINEAR EXTRAPOLATION WILL BE USED

     CHARACTERISTIC ELEMENT LENGTH      1.00    

     DETAILS REGARDING ACTUAL SOLUTION WAVEFRONT REQUESTED

     DETAILED OUTPUT OF DIAGNOSTICS TO DATABASE REQUESTED

     PRINT OF INCREMENT NUMBER, TIME, ETC., TO THE MESSAGE FILE EVERY     1  INCREMENTS

     THE STATUS FILE WILL MONITOR NODE           3 DOF  1
     THE MESSAGE FILE WILL MONITOR NODE          3 DOF  1 EVERY     1 INCREMENTS

     COLLECTING MODEL CONSTRAINT INFORMATION FOR OVERCONSTRAINT CHECKS

     COLLECTING STEP CONSTRAINT INFORMATION FOR OVERCONSTRAINT CHECKS


  INCREMENT     1 STARTS. ATTEMPT NUMBER  1, TIME INCREMENT  1.000E-02

  NUMBER OF EQUATIONS =         8     NUMBER OF RHS =    1
  NUMBER OF FLOATING PT. OPERATIONS =  2.04E+02

     CHECK POINT   START OF SOLVER    

     CHECK POINT  END OF SOLVER       

       ELAPSED USER TIME (SEC)      =   0.0000    
       ELAPSED SYSTEM TIME (SEC)    =   0.0000    
       ELAPSED TOTAL CPU TIME (SEC) =   0.0000    
       ELAPSED WALLCLOCK TIME (SEC) =          0

               CONVERGENCE CHECKS FOR EQUILIBRIUM ITERATION     1


 AVERAGE FORCE                      1.208E-03   TIME AVG. FORCE       1.208E-03
 LARGEST RESIDUAL FORCE             1.735E-18   AT NODE          4   DOF  1
 LARGEST INCREMENT OF DISP.         1.508E-05   AT NODE          3   DOF  1
 LARGEST CORRECTION TO DISP.        1.508E-05   AT NODE          3   DOF  1
          THE FORCE     EQUILIBRIUM RESPONSE WAS LINEAR IN THIS INCREMENT

 ITERATION SUMMARY FOR THE INCREMENT:   1 TOTAL ITERATIONS, OF WHICH
   0 ARE SEVERE DISCONTINUITY ITERATIONS AND  1 ARE EQUILIBRIUM ITERATIONS.

 CURRENT VALUE OF MONITOR NODE          3 D.O.F.  1 IS   1.508E-05

 TIME INCREMENT COMPLETED  1.000E-02,  FRACTION OF STEP COMPLETED  9.091E-04
 STEP TIME COMPLETED       1.000E-02,  TOTAL TIME COMPLETED        1.000E-02


  INCREMENT     2 STARTS. ATTEMPT NUMBER  1, TIME INCREMENT  1.000E-02

  NUMBER OF EQUATIONS =         8     NUMBER OF RHS =    1
  NUMBER OF FLOATING PT. OPERATIONS =  2.04E+02

     CHECK POINT   START OF SOLVER    

     CHECK POINT  END OF SOLVER       

       ELAPSED USER TIME (SEC)      =   0.0000    
       ELAPSED SYSTEM TIME (SEC)    =   0.0000    
       ELAPSED TOTAL CPU TIME (SEC) =   0.0000    
       ELAPSED WALLCLOCK TIME (SEC) =          0

               CONVERGENCE CHECKS FOR EQUILIBRIUM ITERATION     1


 AVERAGE FORCE                      4.833E-03   TIME AVG. FORCE       3.021E-03
 LARGEST RESIDUAL FORCE             1.735E-18   AT NODE          3   DOF  1
 LARGEST INCREMENT OF DISP.         1.508E-05   AT NODE          4   DOF  1
 LARGEST CORRECTION TO DISP.        7.758E-21   AT NODE          4   DOF  1
          THE FORCE     EQUILIBRIUM RESPONSE WAS LINEAR IN THIS INCREMENT

 ITERATION SUMMARY FOR THE INCREMENT:   1 TOTAL ITERATIONS, OF WHICH
   0 ARE SEVERE DISCONTINUITY ITERATIONS AND  1 ARE EQUILIBRIUM ITERATIONS.

 CURRENT VALUE OF MONITOR NODE          3 D.O.F.  1 IS   3.016E-05

 TIME INCREMENT COMPLETED  1.000E-02,  FRACTION OF STEP COMPLETED  1.818E-03
 STEP TIME COMPLETED       2.000E-02,  TOTAL TIME COMPLETED        2.000E-02


  INCREMENT     3 STARTS. ATTEMPT NUMBER  1, TIME INCREMENT  1.000E-02

  NUMBER OF EQUATIONS =         8     NUMBER OF RHS =    1
  NUMBER OF FLOATING PT. OPERATIONS =  2.04E+02

     CHECK POINT   START OF SOLVER    

     CHECK POINT  END OF SOLVER       

       ELAPSED USER TIME (SEC)      =   0.0000    
       ELAPSED SYSTEM TIME (SEC)    =   0.0000    
       ELAPSED TOTAL CPU TIME (SEC) =   0.0000    
       ELAPSED WALLCLOCK TIME (SEC) =          0

               CONVERGENCE CHECKS FOR EQUILIBRIUM ITERATION     1


 AVERAGE FORCE                      7.250E-03   TIME AVG. FORCE       4.431E-03
 LARGEST RESIDUAL FORCE            -1.518E-18   AT NODE          3   DOF  1
 LARGEST INCREMENT OF DISP.         1.508E-05   AT NODE          3   DOF  1
 LARGEST CORRECTION TO DISP.        5.029E-21   AT NODE          3   DOF  1
          THE FORCE     EQUILIBRIUM RESPONSE WAS LINEAR IN THIS INCREMENT

 ITERATION SUMMARY FOR THE INCREMENT:   1 TOTAL ITERATIONS, OF WHICH
   0 ARE SEVERE DISCONTINUITY ITERATIONS AND  1 ARE EQUILIBRIUM ITERATIONS.

 CURRENT VALUE OF MONITOR NODE          3 D.O.F.  1 IS   4.524E-05

 TIME INCREMENT COMPLETED  1.000E-02,  FRACTION OF STEP COMPLETED  2.727E-03
 STEP TIME COMPLETED       3.000E-02,  TOTAL TIME COMPLETED        3.000E-02


  INCREMENT     4 STARTS. ATTEMPT NUMBER  1, TIME INCREMENT  1.000E-02

  NUMBER OF EQUATIONS =         8     NUMBER OF RHS =    1
  NUMBER OF FLOATING PT. OPERATIONS =  2.04E+02

     CHECK POINT   START OF SOLVER    

     CHECK POINT  END OF SOLVER       

       ELAPSED USER TIME (SEC)      =   0.0000    
       ELAPSED SYSTEM TIME (SEC)    =   0.0000    
       ELAPSED TOTAL CPU TIME (SEC) =   0.0000    
       ELAPSED WALLCLOCK TIME (SEC) =          0

               CONVERGENCE CHECKS FOR EQUILIBRIUM ITERATION     1


 AVERAGE FORCE                      9.667E-03   TIME AVG. FORCE       5.740E-03
 ALL FORCE     RESIDUALS ARE ZERO
 LARGEST INCREMENT OF DISP.         1.508E-05   AT NODE          4   DOF  1
 LARGEST CORRECTION TO DISP.       -1.119E-20   AT NODE          3   DOF  1
          THE FORCE     EQUILIBRIUM RESPONSE WAS LINEAR IN THIS INCREMENT

 ITERATION SUMMARY FOR THE INCREMENT:   1 TOTAL ITERATIONS, OF WHICH
   0 ARE SEVERE DISCONTINUITY ITERATIONS AND  1 ARE EQUILIBRIUM ITERATIONS.

 CURRENT VALUE OF MONITOR NODE          3 D.O.F.  1 IS   6.032E-05

 TIME INCREMENT COMPLETED  1.000E-02,  FRACTION OF STEP COMPLETED  3.636E-03
 STEP TIME COMPLETED       4.000E-02,  TOTAL TIME COMPLETED        4.000E-02


  INCREMENT     5 STARTS. ATTEMPT NUMBER  1, TIME INCREMENT  1.000E-02

  NUMBER OF EQUATIONS =         8     NUMBER OF RHS =    1
  NUMBER OF FLOATING PT. OPERATIONS =  2.04E+02

     CHECK POINT   START OF SOLVER    

     CHECK POINT  END OF SOLVER       

       ELAPSED USER TIME (SEC)      =   0.0000    
       ELAPSED SYSTEM TIME (SEC)    =   0.0000    
       ELAPSED TOTAL CPU TIME (SEC) =   0.0000    
       ELAPSED WALLCLOCK TIME (SEC) =          0

               CONVERGENCE CHECKS FOR EQUILIBRIUM ITERATION     1


 AVERAGE FORCE                      1.208E-02   TIME AVG. FORCE       7.008E-03
 LARGEST RESIDUAL FORCE             8.674E-19   AT NODE          3   DOF  1
 LARGEST INCREMENT OF DISP.         1.508E-05   AT NODE          4   DOF  1
 LARGEST CORRECTION TO DISP.       -2.796E-21   AT NODE          3   DOF  1
          THE FORCE     EQUILIBRIUM RESPONSE WAS LINEAR IN THIS INCREMENT

 ITERATION SUMMARY FOR THE INCREMENT:   1 TOTAL ITERATIONS, OF WHICH
   0 ARE SEVERE DISCONTINUITY ITERATIONS AND  1 ARE EQUILIBRIUM ITERATIONS.

 CURRENT VALUE OF MONITOR NODE          3 D.O.F.  1 IS   7.540E-05

 TIME INCREMENT COMPLETED  1.000E-02,  FRACTION OF STEP COMPLETED  4.545E-03
 STEP TIME COMPLETED       5.000E-02,  TOTAL TIME COMPLETED        5.000E-02


  INCREMENT     6 STARTS. ATTEMPT NUMBER  1, TIME INCREMENT  1.000E-02

  NUMBER OF EQUATIONS =         8     NUMBER OF RHS =    1
  NUMBER OF FLOATING PT. OPERATIONS =  2.04E+02

     CHECK POINT   START OF SOLVER    

     CHECK POINT  END OF SOLVER       

       ELAPSED USER TIME (SEC)      =   0.0000    
       ELAPSED SYSTEM TIME (SEC)    =  0.10000    
       ELAPSED TOTAL CPU TIME (SEC) =  0.10000    
       ELAPSED WALLCLOCK TIME (SEC) =          0

               CONVERGENCE CHECKS FOR EQUILIBRIUM ITERATION     1


 AVERAGE FORCE                      1.450E-02   TIME AVG. FORCE       8.257E-03
 LARGEST RESIDUAL FORCE             4.337E-19   AT NODE          3   DOF  1
 LARGEST INCREMENT OF DISP.         1.508E-05   AT NODE          3   DOF  1
 LARGEST CORRECTION TO DISP.        2.377E-20   AT NODE          3   DOF  1
          THE FORCE     EQUILIBRIUM RESPONSE WAS LINEAR IN THIS INCREMENT

 ITERATION SUMMARY FOR THE INCREMENT:   1 TOTAL ITERATIONS, OF WHICH
   0 ARE SEVERE DISCONTINUITY ITERATIONS AND  1 ARE EQUILIBRIUM ITERATIONS.

 CURRENT VALUE OF MONITOR NODE          3 D.O.F.  1 IS   9.048E-05

 TIME INCREMENT COMPLETED  1.000E-02,  FRACTION OF STEP COMPLETED  5.455E-03
 STEP TIME COMPLETED       6.000E-02,  TOTAL TIME COMPLETED        6.000E-02


  INCREMENT     7 STARTS. ATTEMPT NUMBER  1, TIME INCREMENT  1.000E-02

  NUMBER OF EQUATIONS =         8     NUMBER OF RHS =    1
  NUMBER OF FLOATING PT. OPERATIONS =  2.04E+02

     CHECK POINT   START OF SOLVER    

     CHECK POINT  END OF SOLVER       

       ELAPSED USER TIME (SEC)      =   0.0000    
       ELAPSED SYSTEM TIME (SEC)    =   0.0000    
       ELAPSED TOTAL CPU TIME (SEC) =   0.0000    
       ELAPSED WALLCLOCK TIME (SEC) =          0

               CONVERGENCE CHECKS FOR EQUILIBRIUM ITERATION     1


 AVERAGE FORCE                      1.692E-02   TIME AVG. FORCE       9.494E-03
 LARGEST RESIDUAL FORCE            -3.469E-18   AT NODE          4   DOF  1
 LARGEST INCREMENT OF DISP.         1.508E-05   AT NODE          4   DOF  1
 LARGEST CORRECTION TO DISP.        2.066E-20   AT NODE          4   DOF  1
          THE FORCE     EQUILIBRIUM RESPONSE WAS LINEAR IN THIS INCREMENT

 ITERATION SUMMARY FOR THE INCREMENT:   1 TOTAL ITERATIONS, OF WHICH
   0 ARE SEVERE DISCONTINUITY ITERATIONS AND  1 ARE EQUILIBRIUM ITERATIONS.

 CURRENT VALUE OF MONITOR NODE          3 D.O.F.  1 IS   1.056E-04

 TIME INCREMENT COMPLETED  1.000E-02,  FRACTION OF STEP COMPLETED  6.364E-03
 STEP TIME COMPLETED       7.000E-02,  TOTAL TIME COMPLETED        7.000E-02


  INCREMENT     8 STARTS. ATTEMPT NUMBER  1, TIME INCREMENT  1.000E-02

  NUMBER OF EQUATIONS =         8     NUMBER OF RHS =    1
  NUMBER OF FLOATING PT. OPERATIONS =  2.04E+02

     CHECK POINT   START OF SOLVER    

     CHECK POINT  END OF SOLVER       

       ELAPSED USER TIME (SEC)      =   0.0000    
       ELAPSED SYSTEM TIME (SEC)    =   0.0000    
       ELAPSED TOTAL CPU TIME (SEC) =   0.0000    
       ELAPSED WALLCLOCK TIME (SEC) =          0

               CONVERGENCE CHECKS FOR EQUILIBRIUM ITERATION     1


 AVERAGE FORCE                      1.933E-02   TIME AVG. FORCE       1.072E-02
 LARGEST RESIDUAL FORCE            -3.469E-18   AT NODE          3   DOF  1
 LARGEST INCREMENT OF DISP.         1.508E-05   AT NODE          3   DOF  1
 LARGEST CORRECTION TO DISP.       -5.845E-20   AT NODE          4   DOF  1
          THE FORCE     EQUILIBRIUM RESPONSE WAS LINEAR IN THIS INCREMENT

 ITERATION SUMMARY FOR THE INCREMENT:   1 TOTAL ITERATIONS, OF WHICH
   0 ARE SEVERE DISCONTINUITY ITERATIONS AND  1 ARE EQUILIBRIUM ITERATIONS.

 CURRENT VALUE OF MONITOR NODE          3 D.O.F.  1 IS   1.206E-04

 TIME INCREMENT COMPLETED  1.000E-02,  FRACTION OF STEP COMPLETED  7.273E-03
 STEP TIME COMPLETED       8.000E-02,  TOTAL TIME COMPLETED        8.000E-02


  INCREMENT     9 STARTS. ATTEMPT NUMBER  1, TIME INCREMENT  1.000E-02

  NUMBER OF EQUATIONS =         8     NUMBER OF RHS =    1
  NUMBER OF FLOATING PT. OPERATIONS =  2.04E+02

     CHECK POINT   START OF SOLVER    

     CHECK POINT  END OF SOLVER       

       ELAPSED USER TIME (SEC)      =   0.0000    
       ELAPSED SYSTEM TIME (SEC)    =   0.0000    
       ELAPSED TOTAL CPU TIME (SEC) =   0.0000    
       ELAPSED WALLCLOCK TIME (SEC) =          0

               CONVERGENCE CHECKS FOR EQUILIBRIUM ITERATION     1


 AVERAGE FORCE                      2.175E-02   TIME AVG. FORCE       1.195E-02
 LARGEST RESIDUAL FORCE            -2.602E-18   AT NODE          3   DOF  1
 LARGEST INCREMENT OF DISP.         1.508E-05   AT NODE          4   DOF  1
 LARGEST CORRECTION TO DISP.        2.408E-20   AT NODE          4   DOF  1
          THE FORCE     EQUILIBRIUM RESPONSE WAS LINEAR IN THIS INCREMENT

 ITERATION SUMMARY FOR THE INCREMENT:   1 TOTAL ITERATIONS, OF WHICH
   0 ARE SEVERE DISCONTINUITY ITERATIONS AND  1 ARE EQUILIBRIUM ITERATIONS.

 CURRENT VALUE OF MONITOR NODE          3 D.O.F.  1 IS   1.357E-04

 TIME INCREMENT COMPLETED  1.000E-02,  FRACTION OF STEP COMPLETED  8.182E-03
 STEP TIME COMPLETED       9.000E-02,  TOTAL TIME COMPLETED        9.000E-02


  INCREMENT    10 STARTS. ATTEMPT NUMBER  1, TIME INCREMENT  1.000E-02

  NUMBER OF EQUATIONS =         8     NUMBER OF RHS =    1
  NUMBER OF FLOATING PT. OPERATIONS =  2.04E+02

     CHECK POINT   START OF SOLVER    

     CHECK POINT  END OF SOLVER       

       ELAPSED USER TIME (SEC)      =   0.0000    
       ELAPSED SYSTEM TIME (SEC)    =   0.0000    
       ELAPSED TOTAL CPU TIME (SEC) =   0.0000    
       ELAPSED WALLCLOCK TIME (SEC) =          0

               CONVERGENCE CHECKS FOR EQUILIBRIUM ITERATION     1


 AVERAGE FORCE                      2.417E-02   TIME AVG. FORCE       1.317E-02
 LARGEST RESIDUAL FORCE             1.735E-18   AT NODE          3   DOF  1
 LARGEST INCREMENT OF DISP.         1.508E-05   AT NODE          4   DOF  1
 LARGEST CORRECTION TO DISP.       -5.593E-21   AT NODE          3   DOF  1
          THE FORCE     EQUILIBRIUM RESPONSE WAS LINEAR IN THIS INCREMENT

 ITERATION SUMMARY FOR THE INCREMENT:   1 TOTAL ITERATIONS, OF WHICH
   0 ARE SEVERE DISCONTINUITY ITERATIONS AND  1 ARE EQUILIBRIUM ITERATIONS.

 CURRENT VALUE OF MONITOR NODE          3 D.O.F.  1 IS   1.508E-04

 TIME INCREMENT COMPLETED  1.000E-02,  FRACTION OF STEP COMPLETED  9.091E-03
 STEP TIME COMPLETED       0.100    ,  TOTAL TIME COMPLETED        0.100    


  INCREMENT    11 STARTS. ATTEMPT NUMBER  1, TIME INCREMENT  1.000E-02

  NUMBER OF EQUATIONS =         8     NUMBER OF RHS =    1
  NUMBER OF FLOATING PT. OPERATIONS =  2.04E+02

     CHECK POINT   START OF SOLVER    

     CHECK POINT  END OF SOLVER       

       ELAPSED USER TIME (SEC)      =   0.0000    
       ELAPSED SYSTEM TIME (SEC)    =   0.0000    
       ELAPSED TOTAL CPU TIME (SEC) =   0.0000    
       ELAPSED WALLCLOCK TIME (SEC) =          0

               CONVERGENCE CHECKS FOR EQUILIBRIUM ITERATION     1


 AVERAGE FORCE                      2.658E-02   TIME AVG. FORCE       1.439E-02
 LARGEST RESIDUAL FORCE             1.214E-17   AT NODE          3   DOF  1
 LARGEST INCREMENT OF DISP.         1.508E-05   AT NODE          4   DOF  1
 LARGEST CORRECTION TO DISP.       -4.167E-20   AT NODE          3   DOF  1
          THE FORCE     EQUILIBRIUM RESPONSE WAS LINEAR IN THIS INCREMENT

 ITERATION SUMMARY FOR THE INCREMENT:   1 TOTAL ITERATIONS, OF WHICH
   0 ARE SEVERE DISCONTINUITY ITERATIONS AND  1 ARE EQUILIBRIUM ITERATIONS.

 CURRENT VALUE OF MONITOR NODE          3 D.O.F.  1 IS   1.659E-04

 TIME INCREMENT COMPLETED  1.000E-02,  FRACTION OF STEP COMPLETED  1.000E-02
 STEP TIME COMPLETED       0.110    ,  TOTAL TIME COMPLETED        0.110    


  INCREMENT    12 STARTS. ATTEMPT NUMBER  1, TIME INCREMENT  1.000E-02

  NUMBER OF EQUATIONS =         8     NUMBER OF RHS =    1
  NUMBER OF FLOATING PT. OPERATIONS =  2.04E+02

     CHECK POINT   START OF SOLVER    

     CHECK POINT  END OF SOLVER       

       ELAPSED USER TIME (SEC)      =   0.0000    
       ELAPSED SYSTEM TIME (SEC)    =   0.0000    
       ELAPSED TOTAL CPU TIME (SEC) =   0.0000    
       ELAPSED WALLCLOCK TIME (SEC) =          0

               CONVERGENCE CHECKS FOR EQUILIBRIUM ITERATION     1


 AVERAGE FORCE                      2.900E-02   TIME AVG. FORCE       1.561E-02
 LARGEST RESIDUAL FORCE            -6.939E-18   AT NODE          3   DOF  1
 LARGEST INCREMENT OF DISP.         1.508E-05   AT NODE          3   DOF  1
 LARGEST CORRECTION TO DISP.        8.948E-20   AT NODE          3   DOF  1
          THE FORCE     EQUILIBRIUM RESPONSE WAS LINEAR IN THIS INCREMENT

 ITERATION SUMMARY FOR THE INCREMENT:   1 TOTAL ITERATIONS, OF WHICH
   0 ARE SEVERE DISCONTINUITY ITERATIONS AND  1 ARE EQUILIBRIUM ITERATIONS.

 CURRENT VALUE OF MONITOR NODE          3 D.O.F.  1 IS   1.810E-04

 TIME INCREMENT COMPLETED  1.000E-02,  FRACTION OF STEP COMPLETED  1.091E-02
 STEP TIME COMPLETED       0.120    ,  TOTAL TIME COMPLETED        0.120    


  INCREMENT    13 STARTS. ATTEMPT NUMBER  1, TIME INCREMENT  1.000E-02

  NUMBER OF EQUATIONS =         8     NUMBER OF RHS =    1
  NUMBER OF FLOATING PT. OPERATIONS =  2.04E+02

     CHECK POINT   START OF SOLVER    

     CHECK POINT  END OF SOLVER       

       ELAPSED USER TIME (SEC)      =   0.0000    
       ELAPSED SYSTEM TIME (SEC)    =   0.0000    
       ELAPSED TOTAL CPU TIME (SEC) =   0.0000    
       ELAPSED WALLCLOCK TIME (SEC) =          0

               CONVERGENCE CHECKS FOR EQUILIBRIUM ITERATION     1


 AVERAGE FORCE                      3.142E-02   TIME AVG. FORCE       1.682E-02
 LARGEST RESIDUAL FORCE             1.735E-18   AT NODE          3   DOF  1
 LARGEST INCREMENT OF DISP.         1.508E-05   AT NODE          4   DOF  1
 LARGEST CORRECTION TO DISP.       -3.410E-20   AT NODE          3   DOF  1
          THE FORCE     EQUILIBRIUM RESPONSE WAS LINEAR IN THIS INCREMENT

 ITERATION SUMMARY FOR THE INCREMENT:   1 TOTAL ITERATIONS, OF WHICH
   0 ARE SEVERE DISCONTINUITY ITERATIONS AND  1 ARE EQUILIBRIUM ITERATIONS.

 CURRENT VALUE OF MONITOR NODE          3 D.O.F.  1 IS   1.960E-04

 TIME INCREMENT COMPLETED  1.000E-02,  FRACTION OF STEP COMPLETED  1.182E-02
 STEP TIME COMPLETED       0.130    ,  TOTAL TIME COMPLETED        0.130    


  INCREMENT    14 STARTS. ATTEMPT NUMBER  1, TIME INCREMENT  1.000E-02

  NUMBER OF EQUATIONS =         8     NUMBER OF RHS =    1
  NUMBER OF FLOATING PT. OPERATIONS =  2.04E+02

     CHECK POINT   START OF SOLVER    

     CHECK POINT  END OF SOLVER       

       ELAPSED USER TIME (SEC)      =   0.0000    
       ELAPSED SYSTEM TIME (SEC)    =   0.0000    
       ELAPSED TOTAL CPU TIME (SEC) =   0.0000    
       ELAPSED WALLCLOCK TIME (SEC) =          0

               CONVERGENCE CHECKS FOR EQUILIBRIUM ITERATION     1


 AVERAGE FORCE                      3.383E-02   TIME AVG. FORCE       1.804E-02
 LARGEST RESIDUAL FORCE             1.735E-18   AT NODE          3   DOF  1
 LARGEST INCREMENT OF DISP.         1.508E-05   AT NODE          4   DOF  1
 LARGEST CORRECTION TO DISP.        5.593E-21   AT NODE          3   DOF  1
          THE FORCE     EQUILIBRIUM RESPONSE WAS LINEAR IN THIS INCREMENT

 ITERATION SUMMARY FOR THE INCREMENT:   1 TOTAL ITERATIONS, OF WHICH
   0 ARE SEVERE DISCONTINUITY ITERATIONS AND  1 ARE EQUILIBRIUM ITERATIONS.

 CURRENT VALUE OF MONITOR NODE          3 D.O.F.  1 IS   2.111E-04

 TIME INCREMENT COMPLETED  1.000E-02,  FRACTION OF STEP COMPLETED  1.273E-02
 STEP TIME COMPLETED       0.140    ,  TOTAL TIME COMPLETED        0.140    


  INCREMENT    15 STARTS. ATTEMPT NUMBER  1, TIME INCREMENT  1.000E-02

  NUMBER OF EQUATIONS =         8     NUMBER OF RHS =    1
  NUMBER OF FLOATING PT. OPERATIONS =  2.04E+02

     CHECK POINT   START OF SOLVER    

     CHECK POINT  END OF SOLVER       

       ELAPSED USER TIME (SEC)      =   0.0000    
       ELAPSED SYSTEM TIME (SEC)    =   0.0000    
       ELAPSED TOTAL CPU TIME (SEC) =   0.0000    
       ELAPSED WALLCLOCK TIME (SEC) =          0

               CONVERGENCE CHECKS FOR EQUILIBRIUM ITERATION     1


 AVERAGE FORCE                      3.625E-02   TIME AVG. FORCE       1.925E-02
 LARGEST RESIDUAL FORCE            -1.388E-17   AT NODE          4   DOF  1
 LARGEST INCREMENT OF DISP.         1.508E-05   AT NODE          4   DOF  1
 LARGEST CORRECTION TO DISP.        6.874E-20   AT NODE          4   DOF  1
          THE FORCE     EQUILIBRIUM RESPONSE WAS LINEAR IN THIS INCREMENT

 ITERATION SUMMARY FOR THE INCREMENT:   1 TOTAL ITERATIONS, OF WHICH
   0 ARE SEVERE DISCONTINUITY ITERATIONS AND  1 ARE EQUILIBRIUM ITERATIONS.

 CURRENT VALUE OF MONITOR NODE          3 D.O.F.  1 IS   2.262E-04

 TIME INCREMENT COMPLETED  1.000E-02,  FRACTION OF STEP COMPLETED  1.364E-02
 STEP TIME COMPLETED       0.150    ,  TOTAL TIME COMPLETED        0.150    


  INCREMENT    16 STARTS. ATTEMPT NUMBER  1, TIME INCREMENT  1.000E-02

  NUMBER OF EQUATIONS =         8     NUMBER OF RHS =    1
  NUMBER OF FLOATING PT. OPERATIONS =  2.04E+02

     CHECK POINT   START OF SOLVER    

     CHECK POINT  END OF SOLVER       

       ELAPSED USER TIME (SEC)      =   0.0000    
       ELAPSED SYSTEM TIME (SEC)    =   0.0000    
       ELAPSED TOTAL CPU TIME (SEC) =   0.0000    
       ELAPSED WALLCLOCK TIME (SEC) =          0

               CONVERGENCE CHECKS FOR EQUILIBRIUM ITERATION     1


 AVERAGE FORCE                      3.867E-02   TIME AVG. FORCE       2.047E-02
 ALL FORCE     RESIDUALS ARE ZERO
 LARGEST INCREMENT OF DISP.         1.508E-05   AT NODE          3   DOF  1
 LARGEST CORRECTION TO DISP.       -1.256E-19   AT NODE          4   DOF  1
          THE FORCE     EQUILIBRIUM RESPONSE WAS LINEAR IN THIS INCREMENT

 ITERATION SUMMARY FOR THE INCREMENT:   1 TOTAL ITERATIONS, OF WHICH
   0 ARE SEVERE DISCONTINUITY ITERATIONS AND  1 ARE EQUILIBRIUM ITERATIONS.

 CURRENT VALUE OF MONITOR NODE          3 D.O.F.  1 IS   2.413E-04

 TIME INCREMENT COMPLETED  1.000E-02,  FRACTION OF STEP COMPLETED  1.455E-02
 STEP TIME COMPLETED       0.160    ,  TOTAL TIME COMPLETED        0.160    


  INCREMENT    17 STARTS. ATTEMPT NUMBER  1, TIME INCREMENT  1.000E-02

  NUMBER OF EQUATIONS =         8     NUMBER OF RHS =    1
  NUMBER OF FLOATING PT. OPERATIONS =  2.04E+02

     CHECK POINT   START OF SOLVER    

     CHECK POINT  END OF SOLVER       

       ELAPSED USER TIME (SEC)      =   0.0000    
       ELAPSED SYSTEM TIME (SEC)    =   0.0000    
       ELAPSED TOTAL CPU TIME (SEC) =   0.0000    
       ELAPSED WALLCLOCK TIME (SEC) =          0

               CONVERGENCE CHECKS FOR EQUILIBRIUM ITERATION     1


 AVERAGE FORCE                      4.108E-02   TIME AVG. FORCE       2.168E-02
 LARGEST RESIDUAL FORCE             1.735E-18   AT NODE          3   DOF  1
 LARGEST INCREMENT OF DISP.         1.508E-05   AT NODE          3   DOF  1
 LARGEST CORRECTION TO DISP.        8.425E-20   AT NODE          4   DOF  1
          THE FORCE     EQUILIBRIUM RESPONSE WAS LINEAR IN THIS INCREMENT

 ITERATION SUMMARY FOR THE INCREMENT:   1 TOTAL ITERATIONS, OF WHICH
   0 ARE SEVERE DISCONTINUITY ITERATIONS AND  1 ARE EQUILIBRIUM ITERATIONS.

 CURRENT VALUE OF MONITOR NODE          3 D.O.F.  1 IS   2.564E-04

 TIME INCREMENT COMPLETED  1.000E-02,  FRACTION OF STEP COMPLETED  1.545E-02
 STEP TIME COMPLETED       0.170    ,  TOTAL TIME COMPLETED        0.170    


  INCREMENT    18 STARTS. ATTEMPT NUMBER  1, TIME INCREMENT  1.000E-02

  NUMBER OF EQUATIONS =         8     NUMBER OF RHS =    1
  NUMBER OF FLOATING PT. OPERATIONS =  2.04E+02

     CHECK POINT   START OF SOLVER    

     CHECK POINT  END OF SOLVER       

       ELAPSED USER TIME (SEC)      =   0.0000    
       ELAPSED SYSTEM TIME (SEC)    =   0.0000    
       ELAPSED TOTAL CPU TIME (SEC) =   0.0000    
       ELAPSED WALLCLOCK TIME (SEC) =          0

               CONVERGENCE CHECKS FOR EQUILIBRIUM ITERATION     1


 AVERAGE FORCE                      4.350E-02   TIME AVG. FORCE       2.289E-02
 LARGEST RESIDUAL FORCE            -3.469E-18   AT NODE          3   DOF  1
 LARGEST INCREMENT OF DISP.         1.508E-05   AT NODE          3   DOF  1
 LARGEST CORRECTION TO DISP.       -1.119E-20   AT NODE          3   DOF  1
          THE FORCE     EQUILIBRIUM RESPONSE WAS LINEAR IN THIS INCREMENT

 ITERATION SUMMARY FOR THE INCREMENT:   1 TOTAL ITERATIONS, OF WHICH
   0 ARE SEVERE DISCONTINUITY ITERATIONS AND  1 ARE EQUILIBRIUM ITERATIONS.

 CURRENT VALUE OF MONITOR NODE          3 D.O.F.  1 IS   2.714E-04

 TIME INCREMENT COMPLETED  1.000E-02,  FRACTION OF STEP COMPLETED  1.636E-02
 STEP TIME COMPLETED       0.180    ,  TOTAL TIME COMPLETED        0.180    


  INCREMENT    19 STARTS. ATTEMPT NUMBER  1, TIME INCREMENT  1.000E-02

  NUMBER OF EQUATIONS =         8     NUMBER OF RHS =    1
  NUMBER OF FLOATING PT. OPERATIONS =  2.04E+02

     CHECK POINT   START OF SOLVER    

     CHECK POINT  END OF SOLVER       

       ELAPSED USER TIME (SEC)      =   0.0000    
       ELAPSED SYSTEM TIME (SEC)    =   0.0000    
       ELAPSED TOTAL CPU TIME (SEC) =   0.0000    
       ELAPSED WALLCLOCK TIME (SEC) =          0

               CONVERGENCE CHECKS FOR EQUILIBRIUM ITERATION     1


 AVERAGE FORCE                      4.592E-02   TIME AVG. FORCE       2.410E-02
 LARGEST RESIDUAL FORCE             5.204E-18   AT NODE          3   DOF  1
 LARGEST INCREMENT OF DISP.         1.508E-05   AT NODE          4   DOF  1
 LARGEST CORRECTION TO DISP.       -1.001E-19   AT NODE          3   DOF  1
          THE FORCE     EQUILIBRIUM RESPONSE WAS LINEAR IN THIS INCREMENT

 ITERATION SUMMARY FOR THE INCREMENT:   1 TOTAL ITERATIONS, OF WHICH
   0 ARE SEVERE DISCONTINUITY ITERATIONS AND  1 ARE EQUILIBRIUM ITERATIONS.

 CURRENT VALUE OF MONITOR NODE          3 D.O.F.  1 IS   2.865E-04

 TIME INCREMENT COMPLETED  1.000E-02,  FRACTION OF STEP COMPLETED  1.727E-02
 STEP TIME COMPLETED       0.190    ,  TOTAL TIME COMPLETED        0.190    


  INCREMENT    20 STARTS. ATTEMPT NUMBER  1, TIME INCREMENT  1.000E-02

  NUMBER OF EQUATIONS =         8     NUMBER OF RHS =    1
  NUMBER OF FLOATING PT. OPERATIONS =  2.04E+02

     CHECK POINT   START OF SOLVER    

     CHECK POINT  END OF SOLVER       

       ELAPSED USER TIME (SEC)      =   0.0000    
       ELAPSED SYSTEM TIME (SEC)    =   0.0000    
       ELAPSED TOTAL CPU TIME (SEC) =   0.0000    
       ELAPSED WALLCLOCK TIME (SEC) =          0

               CONVERGENCE CHECKS FOR EQUILIBRIUM ITERATION     1


 AVERAGE FORCE                      4.833E-02   TIME AVG. FORCE       2.531E-02
 ALL FORCE     RESIDUALS ARE ZERO
 LARGEST INCREMENT OF DISP.         1.508E-05   AT NODE          4   DOF  1
 LARGEST CORRECTION TO DISP.        1.306E-19   AT NODE          3   DOF  1
          THE FORCE     EQUILIBRIUM RESPONSE WAS LINEAR IN THIS INCREMENT

 ITERATION SUMMARY FOR THE INCREMENT:   1 TOTAL ITERATIONS, OF WHICH
   0 ARE SEVERE DISCONTINUITY ITERATIONS AND  1 ARE EQUILIBRIUM ITERATIONS.

 CURRENT VALUE OF MONITOR NODE          3 D.O.F.  1 IS   3.016E-04

 TIME INCREMENT COMPLETED  1.000E-02,  FRACTION OF STEP COMPLETED  1.818E-02
 STEP TIME COMPLETED       0.200    ,  TOTAL TIME COMPLETED        0.200    


  INCREMENT    21 STARTS. ATTEMPT NUMBER  1, TIME INCREMENT  1.000E-02

  NUMBER OF EQUATIONS =         8     NUMBER OF RHS =    1
  NUMBER OF FLOATING PT. OPERATIONS =  2.04E+02

     CHECK POINT   START OF SOLVER    

     CHECK POINT  END OF SOLVER       

       ELAPSED USER TIME (SEC)      =   0.0000    
       ELAPSED SYSTEM TIME (SEC)    =   0.0000    
       ELAPSED TOTAL CPU TIME (SEC) =   0.0000    
       ELAPSED WALLCLOCK TIME (SEC) =          0

               CONVERGENCE CHECKS FOR EQUILIBRIUM ITERATION     1


 AVERAGE FORCE                      5.075E-02   TIME AVG. FORCE       2.653E-02
 LARGEST RESIDUAL FORCE            -6.939E-18   AT NODE          4   DOF  1
 LARGEST INCREMENT OF DISP.         1.508E-05   AT NODE          4   DOF  1
 LARGEST CORRECTION TO DISP.       -5.286E-20   AT NODE          3   DOF  1
          THE FORCE     EQUILIBRIUM RESPONSE WAS LINEAR IN THIS INCREMENT

 ITERATION SUMMARY FOR THE INCREMENT:   1 TOTAL ITERATIONS, OF WHICH
   0 ARE SEVERE DISCONTINUITY ITERATIONS AND  1 ARE EQUILIBRIUM ITERATIONS.

 CURRENT VALUE OF MONITOR NODE          3 D.O.F.  1 IS   3.167E-04

 TIME INCREMENT COMPLETED  1.000E-02,  FRACTION OF STEP COMPLETED  1.909E-02
 STEP TIME COMPLETED       0.210    ,  TOTAL TIME COMPLETED        0.210    


  INCREMENT    22 STARTS. ATTEMPT NUMBER  1, TIME INCREMENT  1.000E-02

  NUMBER OF EQUATIONS =         8     NUMBER OF RHS =    1
  NUMBER OF FLOATING PT. OPERATIONS =  2.04E+02

     CHECK POINT   START OF SOLVER    

     CHECK POINT  END OF SOLVER       

       ELAPSED USER TIME (SEC)      =   0.0000    
       ELAPSED SYSTEM TIME (SEC)    =   0.0000    
       ELAPSED TOTAL CPU TIME (SEC) =   0.0000    
       ELAPSED WALLCLOCK TIME (SEC) =          0

               CONVERGENCE CHECKS FOR EQUILIBRIUM ITERATION     1


 AVERAGE FORCE                      5.317E-02   TIME AVG. FORCE       2.774E-02
 LARGEST RESIDUAL FORCE             3.469E-18   AT NODE          3   DOF  1
 LARGEST INCREMENT OF DISP.         1.508E-05   AT NODE          3   DOF  1
 LARGEST CORRECTION TO DISP.       -3.789E-20   AT NODE          4   DOF  1
          THE FORCE     EQUILIBRIUM RESPONSE WAS LINEAR IN THIS INCREMENT

 ITERATION SUMMARY FOR THE INCREMENT:   1 TOTAL ITERATIONS, OF WHICH
   0 ARE SEVERE DISCONTINUITY ITERATIONS AND  1 ARE EQUILIBRIUM ITERATIONS.

 CURRENT VALUE OF MONITOR NODE          3 D.O.F.  1 IS   3.318E-04

 TIME INCREMENT COMPLETED  1.000E-02,  FRACTION OF STEP COMPLETED  2.000E-02
 STEP TIME COMPLETED       0.220    ,  TOTAL TIME COMPLETED        0.220    


  INCREMENT    23 STARTS. ATTEMPT NUMBER  1, TIME INCREMENT  1.000E-02

  NUMBER OF EQUATIONS =         8     NUMBER OF RHS =    1
  NUMBER OF FLOATING PT. OPERATIONS =  2.04E+02

     CHECK POINT   START OF SOLVER    

     CHECK POINT  END OF SOLVER       

       ELAPSED USER TIME (SEC)      =   0.0000    
       ELAPSED SYSTEM TIME (SEC)    =   0.0000    
       ELAPSED TOTAL CPU TIME (SEC) =   0.0000    
       ELAPSED WALLCLOCK TIME (SEC) =          0

               CONVERGENCE CHECKS FOR EQUILIBRIUM ITERATION     1


 AVERAGE FORCE                      5.558E-02   TIME AVG. FORCE       2.895E-02
 LARGEST RESIDUAL FORCE             6.939E-18   AT NODE          4   DOF  1
 LARGEST INCREMENT OF DISP.         1.508E-05   AT NODE          3   DOF  1
 LARGEST CORRECTION TO DISP.       -2.923E-20   AT NODE          4   DOF  1
          THE FORCE     EQUILIBRIUM RESPONSE WAS LINEAR IN THIS INCREMENT

 ITERATION SUMMARY FOR THE INCREMENT:   1 TOTAL ITERATIONS, OF WHICH
   0 ARE SEVERE DISCONTINUITY ITERATIONS AND  1 ARE EQUILIBRIUM ITERATIONS.

 CURRENT VALUE OF MONITOR NODE          3 D.O.F.  1 IS   3.468E-04

 TIME INCREMENT COMPLETED  1.000E-02,  FRACTION OF STEP COMPLETED  2.091E-02
 STEP TIME COMPLETED       0.230    ,  TOTAL TIME COMPLETED        0.230    


  INCREMENT    24 STARTS. ATTEMPT NUMBER  1, TIME INCREMENT  1.000E-02

  NUMBER OF EQUATIONS =         8     NUMBER OF RHS =    1
  NUMBER OF FLOATING PT. OPERATIONS =  2.04E+02

     CHECK POINT   START OF SOLVER    

     CHECK POINT  END OF SOLVER       

       ELAPSED USER TIME (SEC)      =   0.0000    
       ELAPSED SYSTEM TIME (SEC)    =   0.0000    
       ELAPSED TOTAL CPU TIME (SEC) =   0.0000    
       ELAPSED WALLCLOCK TIME (SEC) =          0

               CONVERGENCE CHECKS FOR EQUILIBRIUM ITERATION     1


 AVERAGE FORCE                      5.800E-02   TIME AVG. FORCE       3.016E-02
 LARGEST RESIDUAL FORCE            -1.214E-17   AT NODE          3   DOF  1
 LARGEST INCREMENT OF DISP.         1.508E-05   AT NODE          4   DOF  1
 LARGEST CORRECTION TO DISP.        1.651E-19   AT NODE          4   DOF  1
          THE FORCE     EQUILIBRIUM RESPONSE WAS LINEAR IN THIS INCREMENT

 ITERATION SUMMARY FOR THE INCREMENT:   1 TOTAL ITERATIONS, OF WHICH
   0 ARE SEVERE DISCONTINUITY ITERATIONS AND  1 ARE EQUILIBRIUM ITERATIONS.

 CURRENT VALUE OF MONITOR NODE          3 D.O.F.  1 IS   3.619E-04

 TIME INCREMENT COMPLETED  1.000E-02,  FRACTION OF STEP COMPLETED  2.182E-02
 STEP TIME COMPLETED       0.240    ,  TOTAL TIME COMPLETED        0.240    


  INCREMENT    25 STARTS. ATTEMPT NUMBER  1, TIME INCREMENT  1.000E-02

  NUMBER OF EQUATIONS =         8     NUMBER OF RHS =    1
  NUMBER OF FLOATING PT. OPERATIONS =  2.04E+02

     CHECK POINT   START OF SOLVER    

     CHECK POINT  END OF SOLVER       

       ELAPSED USER TIME (SEC)      =   0.0000    
       ELAPSED SYSTEM TIME (SEC)    =   0.0000    
       ELAPSED TOTAL CPU TIME (SEC) =   0.0000    
       ELAPSED WALLCLOCK TIME (SEC) =          0

               CONVERGENCE CHECKS FOR EQUILIBRIUM ITERATION     1


 AVERAGE FORCE                      6.042E-02   TIME AVG. FORCE       3.137E-02
 ALL FORCE     RESIDUALS ARE ZERO
 LARGEST INCREMENT OF DISP.         1.508E-05   AT NODE          4   DOF  1
 LARGEST CORRECTION TO DISP.       -2.165E-19   AT NODE          3   DOF  1
          THE FORCE     EQUILIBRIUM RESPONSE WAS LINEAR IN THIS INCREMENT

 ITERATION SUMMARY FOR THE INCREMENT:   1 TOTAL ITERATIONS, OF WHICH
   0 ARE SEVERE DISCONTINUITY ITERATIONS AND  1 ARE EQUILIBRIUM ITERATIONS.

 CURRENT VALUE OF MONITOR NODE          3 D.O.F.  1 IS   3.770E-04

 TIME INCREMENT COMPLETED  1.000E-02,  FRACTION OF STEP COMPLETED  2.273E-02
 STEP TIME COMPLETED       0.250    ,  TOTAL TIME COMPLETED        0.250    


  INCREMENT    26 STARTS. ATTEMPT NUMBER  1, TIME INCREMENT  1.000E-02

  NUMBER OF EQUATIONS =         8     NUMBER OF RHS =    1
  NUMBER OF FLOATING PT. OPERATIONS =  2.04E+02

     CHECK POINT   START OF SOLVER    

     CHECK POINT  END OF SOLVER       

       ELAPSED USER TIME (SEC)      =   0.0000    
       ELAPSED SYSTEM TIME (SEC)    =   0.0000    
       ELAPSED TOTAL CPU TIME (SEC) =   0.0000    
       ELAPSED WALLCLOCK TIME (SEC) =          0

               CONVERGENCE CHECKS FOR EQUILIBRIUM ITERATION     1


 AVERAGE FORCE                      6.283E-02   TIME AVG. FORCE       3.258E-02
 ALL FORCE     RESIDUALS ARE ZERO
 LARGEST INCREMENT OF DISP.         1.508E-05   AT NODE          3   DOF  1
 LARGEST CORRECTION TO DISP.        1.342E-19   AT NODE          3   DOF  1
          THE FORCE     EQUILIBRIUM RESPONSE WAS LINEAR IN THIS INCREMENT

 ITERATION SUMMARY FOR THE INCREMENT:   1 TOTAL ITERATIONS, OF WHICH
   0 ARE SEVERE DISCONTINUITY ITERATIONS AND  1 ARE EQUILIBRIUM ITERATIONS.

 CURRENT VALUE OF MONITOR NODE          3 D.O.F.  1 IS   3.921E-04

 TIME INCREMENT COMPLETED  1.000E-02,  FRACTION OF STEP COMPLETED  2.364E-02
 STEP TIME COMPLETED       0.260    ,  TOTAL TIME COMPLETED        0.260    


  INCREMENT    27 STARTS. ATTEMPT NUMBER  1, TIME INCREMENT  1.000E-02

  NUMBER OF EQUATIONS =         8     NUMBER OF RHS =    1
  NUMBER OF FLOATING PT. OPERATIONS =  2.04E+02

     CHECK POINT   START OF SOLVER    

     CHECK POINT  END OF SOLVER       

       ELAPSED USER TIME (SEC)      =   0.0000    
       ELAPSED SYSTEM TIME (SEC)    =   0.0000    
       ELAPSED TOTAL CPU TIME (SEC) =   0.0000    
       ELAPSED WALLCLOCK TIME (SEC) =          0

               CONVERGENCE CHECKS FOR EQUILIBRIUM ITERATION     1


 AVERAGE FORCE                      6.525E-02   TIME AVG. FORCE       3.379E-02
 LARGEST RESIDUAL FORCE             1.041E-17   AT NODE          3   DOF  1
 LARGEST INCREMENT OF DISP.         1.508E-05   AT NODE          4   DOF  1
 LARGEST CORRECTION TO DISP.        5.521E-20   AT NODE          4   DOF  1
          THE FORCE     EQUILIBRIUM RESPONSE WAS LINEAR IN THIS INCREMENT

 ITERATION SUMMARY FOR THE INCREMENT:   1 TOTAL ITERATIONS, OF WHICH
   0 ARE SEVERE DISCONTINUITY ITERATIONS AND  1 ARE EQUILIBRIUM ITERATIONS.

 CURRENT VALUE OF MONITOR NODE          3 D.O.F.  1 IS   4.072E-04

 TIME INCREMENT COMPLETED  1.000E-02,  FRACTION OF STEP COMPLETED  2.455E-02
 STEP TIME COMPLETED       0.270    ,  TOTAL TIME COMPLETED        0.270    


  INCREMENT    28 STARTS. ATTEMPT NUMBER  1, TIME INCREMENT  1.000E-02

  NUMBER OF EQUATIONS =         8     NUMBER OF RHS =    1
  NUMBER OF FLOATING PT. OPERATIONS =  2.04E+02

     CHECK POINT   START OF SOLVER    

     CHECK POINT  END OF SOLVER       

       ELAPSED USER TIME (SEC)      =   0.0000    
       ELAPSED SYSTEM TIME (SEC)    =   0.0000    
       ELAPSED TOTAL CPU TIME (SEC) =   0.0000    
       ELAPSED WALLCLOCK TIME (SEC) =          0

               CONVERGENCE CHECKS FOR EQUILIBRIUM ITERATION     1


 AVERAGE FORCE                      6.767E-02   TIME AVG. FORCE       3.500E-02
 LARGEST RESIDUAL FORCE            -2.776E-17   AT NODE          4   DOF  1
 LARGEST INCREMENT OF DISP.         1.508E-05   AT NODE          3   DOF  1
 LARGEST CORRECTION TO DISP.        6.206E-20   AT NODE          3   DOF  1
          THE FORCE     EQUILIBRIUM RESPONSE WAS LINEAR IN THIS INCREMENT

 ITERATION SUMMARY FOR THE INCREMENT:   1 TOTAL ITERATIONS, OF WHICH
   0 ARE SEVERE DISCONTINUITY ITERATIONS AND  1 ARE EQUILIBRIUM ITERATIONS.

 CURRENT VALUE OF MONITOR NODE          3 D.O.F.  1 IS   4.222E-04

 TIME INCREMENT COMPLETED  1.000E-02,  FRACTION OF STEP COMPLETED  2.545E-02
 STEP TIME COMPLETED       0.280    ,  TOTAL TIME COMPLETED        0.280    


  INCREMENT    29 STARTS. ATTEMPT NUMBER  1, TIME INCREMENT  1.000E-02

  NUMBER OF EQUATIONS =         8     NUMBER OF RHS =    1
  NUMBER OF FLOATING PT. OPERATIONS =  2.04E+02

     CHECK POINT   START OF SOLVER    

     CHECK POINT  END OF SOLVER       

       ELAPSED USER TIME (SEC)      =   0.0000    
       ELAPSED SYSTEM TIME (SEC)    =   0.0000    
       ELAPSED TOTAL CPU TIME (SEC) =   0.0000    
       ELAPSED WALLCLOCK TIME (SEC) =          0

               CONVERGENCE CHECKS FOR EQUILIBRIUM ITERATION     1


 AVERAGE FORCE                      7.008E-02   TIME AVG. FORCE       3.621E-02
 LARGEST RESIDUAL FORCE             1.388E-17   AT NODE          3   DOF  1
 LARGEST INCREMENT OF DISP.         1.508E-05   AT NODE          3   DOF  1
 LARGEST CORRECTION TO DISP.       -1.891E-19   AT NODE          3   DOF  1
          THE FORCE     EQUILIBRIUM RESPONSE WAS LINEAR IN THIS INCREMENT

 ITERATION SUMMARY FOR THE INCREMENT:   1 TOTAL ITERATIONS, OF WHICH
   0 ARE SEVERE DISCONTINUITY ITERATIONS AND  1 ARE EQUILIBRIUM ITERATIONS.

 CURRENT VALUE OF MONITOR NODE          3 D.O.F.  1 IS   4.373E-04

 TIME INCREMENT COMPLETED  1.000E-02,  FRACTION OF STEP COMPLETED  2.636E-02
 STEP TIME COMPLETED       0.290    ,  TOTAL TIME COMPLETED        0.290    


  INCREMENT    30 STARTS. ATTEMPT NUMBER  1, TIME INCREMENT  1.000E-02

  NUMBER OF EQUATIONS =         8     NUMBER OF RHS =    1
  NUMBER OF FLOATING PT. OPERATIONS =  2.04E+02

     CHECK POINT   START OF SOLVER    

     CHECK POINT  END OF SOLVER       

       ELAPSED USER TIME (SEC)      =   0.0000    
       ELAPSED SYSTEM TIME (SEC)    =   0.0000    
       ELAPSED TOTAL CPU TIME (SEC) =   0.0000    
       ELAPSED WALLCLOCK TIME (SEC) =          0

               CONVERGENCE CHECKS FOR EQUILIBRIUM ITERATION     1


 AVERAGE FORCE                      7.250E-02   TIME AVG. FORCE       3.742E-02
 LARGEST RESIDUAL FORCE            -1.388E-17   AT NODE          4   DOF  1
 LARGEST INCREMENT OF DISP.         1.508E-05   AT NODE          4   DOF  1
 LARGEST CORRECTION TO DISP.        2.132E-19   AT NODE          4   DOF  1
          THE FORCE     EQUILIBRIUM RESPONSE WAS LINEAR IN THIS INCREMENT

 ITERATION SUMMARY FOR THE INCREMENT:   1 TOTAL ITERATIONS, OF WHICH
   0 ARE SEVERE DISCONTINUITY ITERATIONS AND  1 ARE EQUILIBRIUM ITERATIONS.

 CURRENT VALUE OF MONITOR NODE          3 D.O.F.  1 IS   4.524E-04

 TIME INCREMENT COMPLETED  1.000E-02,  FRACTION OF STEP COMPLETED  2.727E-02
 STEP TIME COMPLETED       0.300    ,  TOTAL TIME COMPLETED        0.300    


  INCREMENT    31 STARTS. ATTEMPT NUMBER  1, TIME INCREMENT  1.000E-02

  NUMBER OF EQUATIONS =         8     NUMBER OF RHS =    1
  NUMBER OF FLOATING PT. OPERATIONS =  2.04E+02

     CHECK POINT   START OF SOLVER    

     CHECK POINT  END OF SOLVER       

       ELAPSED USER TIME (SEC)      =   0.0000    
       ELAPSED SYSTEM TIME (SEC)    =   0.0000    
       ELAPSED TOTAL CPU TIME (SEC) =   0.0000    
       ELAPSED WALLCLOCK TIME (SEC) =          0

               CONVERGENCE CHECKS FOR EQUILIBRIUM ITERATION     1


 AVERAGE FORCE                      7.492E-02   TIME AVG. FORCE       3.863E-02
 LARGEST RESIDUAL FORCE             1.735E-17   AT NODE          3   DOF  1
 LARGEST INCREMENT OF DISP.         1.508E-05   AT NODE          4   DOF  1
 LARGEST CORRECTION TO DISP.       -6.531E-20   AT NODE          4   DOF  1
          THE FORCE     EQUILIBRIUM RESPONSE WAS LINEAR IN THIS INCREMENT

 ITERATION SUMMARY FOR THE INCREMENT:   1 TOTAL ITERATIONS, OF WHICH
   0 ARE SEVERE DISCONTINUITY ITERATIONS AND  1 ARE EQUILIBRIUM ITERATIONS.

 CURRENT VALUE OF MONITOR NODE          3 D.O.F.  1 IS   4.675E-04

 TIME INCREMENT COMPLETED  1.000E-02,  FRACTION OF STEP COMPLETED  2.818E-02
 STEP TIME COMPLETED       0.310    ,  TOTAL TIME COMPLETED        0.310    


  INCREMENT    32 STARTS. ATTEMPT NUMBER  1, TIME INCREMENT  1.000E-02

  NUMBER OF EQUATIONS =         8     NUMBER OF RHS =    1
  NUMBER OF FLOATING PT. OPERATIONS =  2.04E+02

     CHECK POINT   START OF SOLVER    

     CHECK POINT  END OF SOLVER       

       ELAPSED USER TIME (SEC)      =   0.0000    
       ELAPSED SYSTEM TIME (SEC)    =   0.0000    
       ELAPSED TOTAL CPU TIME (SEC) =   0.0000    
       ELAPSED WALLCLOCK TIME (SEC) =          0

               CONVERGENCE CHECKS FOR EQUILIBRIUM ITERATION     1


 AVERAGE FORCE                      7.733E-02   TIME AVG. FORCE       3.984E-02
 LARGEST RESIDUAL FORCE             3.469E-18   AT NODE          3   DOF  1
 LARGEST INCREMENT OF DISP.         1.508E-05   AT NODE          3   DOF  1
 LARGEST CORRECTION TO DISP.       -7.253E-20   AT NODE          4   DOF  1
          THE FORCE     EQUILIBRIUM RESPONSE WAS LINEAR IN THIS INCREMENT

 ITERATION SUMMARY FOR THE INCREMENT:   1 TOTAL ITERATIONS, OF WHICH
   0 ARE SEVERE DISCONTINUITY ITERATIONS AND  1 ARE EQUILIBRIUM ITERATIONS.

 CURRENT VALUE OF MONITOR NODE          3 D.O.F.  1 IS   4.826E-04

 TIME INCREMENT COMPLETED  1.000E-02,  FRACTION OF STEP COMPLETED  2.909E-02
 STEP TIME COMPLETED       0.320    ,  TOTAL TIME COMPLETED        0.320    


  INCREMENT    33 STARTS. ATTEMPT NUMBER  1, TIME INCREMENT  1.000E-02

  NUMBER OF EQUATIONS =         8     NUMBER OF RHS =    1
  NUMBER OF FLOATING PT. OPERATIONS =  2.04E+02

     CHECK POINT   START OF SOLVER    

     CHECK POINT  END OF SOLVER       

       ELAPSED USER TIME (SEC)      =   0.0000    
       ELAPSED SYSTEM TIME (SEC)    =   0.0000    
       ELAPSED TOTAL CPU TIME (SEC) =   0.0000    
       ELAPSED WALLCLOCK TIME (SEC) =          0

               CONVERGENCE CHECKS FOR EQUILIBRIUM ITERATION     1


 AVERAGE FORCE                      7.975E-02   TIME AVG. FORCE       4.105E-02
 LARGEST RESIDUAL FORCE             1.388E-17   AT NODE          4   DOF  1
 LARGEST INCREMENT OF DISP.         1.508E-05   AT NODE          4   DOF  1
 LARGEST CORRECTION TO DISP.        9.309E-20   AT NODE          4   DOF  1
          THE FORCE     EQUILIBRIUM RESPONSE WAS LINEAR IN THIS INCREMENT

 ITERATION SUMMARY FOR THE INCREMENT:   1 TOTAL ITERATIONS, OF WHICH
   0 ARE SEVERE DISCONTINUITY ITERATIONS AND  1 ARE EQUILIBRIUM ITERATIONS.

 CURRENT VALUE OF MONITOR NODE          3 D.O.F.  1 IS   4.976E-04

 TIME INCREMENT COMPLETED  1.000E-02,  FRACTION OF STEP COMPLETED  3.000E-02
 STEP TIME COMPLETED       0.330    ,  TOTAL TIME COMPLETED        0.330    


  INCREMENT    34 STARTS. ATTEMPT NUMBER  1, TIME INCREMENT  1.000E-02

  NUMBER OF EQUATIONS =         8     NUMBER OF RHS =    1
  NUMBER OF FLOATING PT. OPERATIONS =  2.04E+02

     CHECK POINT   START OF SOLVER    

     CHECK POINT  END OF SOLVER       

       ELAPSED USER TIME (SEC)      =   0.0000    
       ELAPSED SYSTEM TIME (SEC)    =   0.0000    
       ELAPSED TOTAL CPU TIME (SEC) =   0.0000    
       ELAPSED WALLCLOCK TIME (SEC) =          0

               CONVERGENCE CHECKS FOR EQUILIBRIUM ITERATION     1


 AVERAGE FORCE                      8.217E-02   TIME AVG. FORCE       4.226E-02
 LARGEST RESIDUAL FORCE             1.041E-17   AT NODE          3   DOF  1
 LARGEST INCREMENT OF DISP.         1.508E-05   AT NODE          4   DOF  1
 LARGEST CORRECTION TO DISP.       -8.335E-20   AT NODE          3   DOF  1
          THE FORCE     EQUILIBRIUM RESPONSE WAS LINEAR IN THIS INCREMENT

 ITERATION SUMMARY FOR THE INCREMENT:   1 TOTAL ITERATIONS, OF WHICH
   0 ARE SEVERE DISCONTINUITY ITERATIONS AND  1 ARE EQUILIBRIUM ITERATIONS.

 CURRENT VALUE OF MONITOR NODE          3 D.O.F.  1 IS   5.127E-04

 TIME INCREMENT COMPLETED  1.000E-02,  FRACTION OF STEP COMPLETED  3.091E-02
 STEP TIME COMPLETED       0.340    ,  TOTAL TIME COMPLETED        0.340    


  INCREMENT    35 STARTS. ATTEMPT NUMBER  1, TIME INCREMENT  1.000E-02

  NUMBER OF EQUATIONS =         8     NUMBER OF RHS =    1
  NUMBER OF FLOATING PT. OPERATIONS =  2.04E+02

     CHECK POINT   START OF SOLVER    

     CHECK POINT  END OF SOLVER       

       ELAPSED USER TIME (SEC)      =   0.0000    
       ELAPSED SYSTEM TIME (SEC)    =   0.0000    
       ELAPSED TOTAL CPU TIME (SEC) =   0.0000    
       ELAPSED WALLCLOCK TIME (SEC) =          0

               CONVERGENCE CHECKS FOR EQUILIBRIUM ITERATION     1


 AVERAGE FORCE                      8.458E-02   TIME AVG. FORCE       4.347E-02
 LARGEST RESIDUAL FORCE             1.041E-17   AT NODE          3   DOF  1
 LARGEST INCREMENT OF DISP.         1.508E-05   AT NODE          3   DOF  1
 LARGEST CORRECTION TO DISP.        7.830E-20   AT NODE          3   DOF  1
          THE FORCE     EQUILIBRIUM RESPONSE WAS LINEAR IN THIS INCREMENT

 ITERATION SUMMARY FOR THE INCREMENT:   1 TOTAL ITERATIONS, OF WHICH
   0 ARE SEVERE DISCONTINUITY ITERATIONS AND  1 ARE EQUILIBRIUM ITERATIONS.

 CURRENT VALUE OF MONITOR NODE          3 D.O.F.  1 IS   5.278E-04

 TIME INCREMENT COMPLETED  1.000E-02,  FRACTION OF STEP COMPLETED  3.182E-02
 STEP TIME COMPLETED       0.350    ,  TOTAL TIME COMPLETED        0.350    


  INCREMENT    36 STARTS. ATTEMPT NUMBER  1, TIME INCREMENT  1.000E-02

  NUMBER OF EQUATIONS =         8     NUMBER OF RHS =    1
  NUMBER OF FLOATING PT. OPERATIONS =  2.04E+02

     CHECK POINT   START OF SOLVER    

     CHECK POINT  END OF SOLVER       

       ELAPSED USER TIME (SEC)      =   0.0000    
       ELAPSED SYSTEM TIME (SEC)    =   0.0000    
       ELAPSED TOTAL CPU TIME (SEC) =   0.0000    
       ELAPSED WALLCLOCK TIME (SEC) =          0

               CONVERGENCE CHECKS FOR EQUILIBRIUM ITERATION     1


 AVERAGE FORCE                      8.700E-02   TIME AVG. FORCE       4.467E-02
 LARGEST RESIDUAL FORCE            -1.388E-17   AT NODE          3   DOF  1
 LARGEST INCREMENT OF DISP.         1.508E-05   AT NODE          3   DOF  1
 LARGEST CORRECTION TO DISP.        4.474E-20   AT NODE          3   DOF  1
          THE FORCE     EQUILIBRIUM RESPONSE WAS LINEAR IN THIS INCREMENT

 ITERATION SUMMARY FOR THE INCREMENT:   1 TOTAL ITERATIONS, OF WHICH
   0 ARE SEVERE DISCONTINUITY ITERATIONS AND  1 ARE EQUILIBRIUM ITERATIONS.

 CURRENT VALUE OF MONITOR NODE          3 D.O.F.  1 IS   5.429E-04

 TIME INCREMENT COMPLETED  1.000E-02,  FRACTION OF STEP COMPLETED  3.273E-02
 STEP TIME COMPLETED       0.360    ,  TOTAL TIME COMPLETED        0.360    


  INCREMENT    37 STARTS. ATTEMPT NUMBER  1, TIME INCREMENT  1.000E-02

  NUMBER OF EQUATIONS =         8     NUMBER OF RHS =    1
  NUMBER OF FLOATING PT. OPERATIONS =  2.04E+02

     CHECK POINT   START OF SOLVER    

     CHECK POINT  END OF SOLVER       

       ELAPSED USER TIME (SEC)      =   0.0000    
       ELAPSED SYSTEM TIME (SEC)    =   0.0000    
       ELAPSED TOTAL CPU TIME (SEC) =   0.0000    
       ELAPSED WALLCLOCK TIME (SEC) =          0

               CONVERGENCE CHECKS FOR EQUILIBRIUM ITERATION     1


 AVERAGE FORCE                      8.942E-02   TIME AVG. FORCE       4.588E-02
 LARGEST RESIDUAL FORCE             1.388E-17   AT NODE          4   DOF  1
 LARGEST INCREMENT OF DISP.         1.508E-05   AT NODE          3   DOF  1
 LARGEST CORRECTION TO DISP.       -1.443E-19   AT NODE          3   DOF  1
          THE FORCE     EQUILIBRIUM RESPONSE WAS LINEAR IN THIS INCREMENT

 ITERATION SUMMARY FOR THE INCREMENT:   1 TOTAL ITERATIONS, OF WHICH
   0 ARE SEVERE DISCONTINUITY ITERATIONS AND  1 ARE EQUILIBRIUM ITERATIONS.

 CURRENT VALUE OF MONITOR NODE          3 D.O.F.  1 IS   5.580E-04

 TIME INCREMENT COMPLETED  1.000E-02,  FRACTION OF STEP COMPLETED  3.364E-02
 STEP TIME COMPLETED       0.370    ,  TOTAL TIME COMPLETED        0.370    


  INCREMENT    38 STARTS. ATTEMPT NUMBER  1, TIME INCREMENT  1.000E-02

  NUMBER OF EQUATIONS =         8     NUMBER OF RHS =    1
  NUMBER OF FLOATING PT. OPERATIONS =  2.04E+02

     CHECK POINT   START OF SOLVER    

     CHECK POINT  END OF SOLVER       

       ELAPSED USER TIME (SEC)      =   0.0000    
       ELAPSED SYSTEM TIME (SEC)    =   0.0000    
       ELAPSED TOTAL CPU TIME (SEC) =   0.0000    
       ELAPSED WALLCLOCK TIME (SEC) =          0

               CONVERGENCE CHECKS FOR EQUILIBRIUM ITERATION     1


 AVERAGE FORCE                      9.183E-02   TIME AVG. FORCE       4.709E-02
 LARGEST RESIDUAL FORCE            -1.388E-17   AT NODE          4   DOF  1
 LARGEST INCREMENT OF DISP.         1.508E-05   AT NODE          4   DOF  1
 LARGEST CORRECTION TO DISP.        2.407E-19   AT NODE          4   DOF  1
          THE FORCE     EQUILIBRIUM RESPONSE WAS LINEAR IN THIS INCREMENT

 ITERATION SUMMARY FOR THE INCREMENT:   1 TOTAL ITERATIONS, OF WHICH
   0 ARE SEVERE DISCONTINUITY ITERATIONS AND  1 ARE EQUILIBRIUM ITERATIONS.

 CURRENT VALUE OF MONITOR NODE          3 D.O.F.  1 IS   5.730E-04

 TIME INCREMENT COMPLETED  1.000E-02,  FRACTION OF STEP COMPLETED  3.455E-02
 STEP TIME COMPLETED       0.380    ,  TOTAL TIME COMPLETED        0.380    


  INCREMENT    39 STARTS. ATTEMPT NUMBER  1, TIME INCREMENT  1.000E-02

  NUMBER OF EQUATIONS =         8     NUMBER OF RHS =    1
  NUMBER OF FLOATING PT. OPERATIONS =  2.04E+02

     CHECK POINT   START OF SOLVER    

     CHECK POINT  END OF SOLVER       

       ELAPSED USER TIME (SEC)      =   0.0000    
       ELAPSED SYSTEM TIME (SEC)    =   0.0000    
       ELAPSED TOTAL CPU TIME (SEC) =   0.0000    
       ELAPSED WALLCLOCK TIME (SEC) =          0

               CONVERGENCE CHECKS FOR EQUILIBRIUM ITERATION     1


 AVERAGE FORCE                      9.425E-02   TIME AVG. FORCE       4.830E-02
 LARGEST RESIDUAL FORCE            -6.939E-18   AT NODE          3   DOF  1
 LARGEST INCREMENT OF DISP.         1.508E-05   AT NODE          4   DOF  1
 LARGEST CORRECTION TO DISP.       -1.667E-19   AT NODE          3   DOF  1
          THE FORCE     EQUILIBRIUM RESPONSE WAS LINEAR IN THIS INCREMENT

 ITERATION SUMMARY FOR THE INCREMENT:   1 TOTAL ITERATIONS, OF WHICH
   0 ARE SEVERE DISCONTINUITY ITERATIONS AND  1 ARE EQUILIBRIUM ITERATIONS.

 CURRENT VALUE OF MONITOR NODE          3 D.O.F.  1 IS   5.881E-04

 TIME INCREMENT COMPLETED  1.000E-02,  FRACTION OF STEP COMPLETED  3.545E-02
 STEP TIME COMPLETED       0.390    ,  TOTAL TIME COMPLETED        0.390    


  INCREMENT    40 STARTS. ATTEMPT NUMBER  1, TIME INCREMENT  1.000E-02

  NUMBER OF EQUATIONS =         8     NUMBER OF RHS =    1
  NUMBER OF FLOATING PT. OPERATIONS =  2.04E+02

     CHECK POINT   START OF SOLVER    

     CHECK POINT  END OF SOLVER       

       ELAPSED USER TIME (SEC)      =   0.0000    
       ELAPSED SYSTEM TIME (SEC)    =   0.0000    
       ELAPSED TOTAL CPU TIME (SEC) =   0.0000    
       ELAPSED WALLCLOCK TIME (SEC) =          0

               CONVERGENCE CHECKS FOR EQUILIBRIUM ITERATION     1


 AVERAGE FORCE                      9.667E-02   TIME AVG. FORCE       4.951E-02
 LARGEST RESIDUAL FORCE             6.939E-18   AT NODE          3   DOF  1
 LARGEST INCREMENT OF DISP.         1.508E-05   AT NODE          4   DOF  1
 LARGEST CORRECTION TO DISP.       -2.237E-20   AT NODE          3   DOF  1
          THE FORCE     EQUILIBRIUM RESPONSE WAS LINEAR IN THIS INCREMENT

 ITERATION SUMMARY FOR THE INCREMENT:   1 TOTAL ITERATIONS, OF WHICH
   0 ARE SEVERE DISCONTINUITY ITERATIONS AND  1 ARE EQUILIBRIUM ITERATIONS.

 CURRENT VALUE OF MONITOR NODE          3 D.O.F.  1 IS   6.032E-04

 TIME INCREMENT COMPLETED  1.000E-02,  FRACTION OF STEP COMPLETED  3.636E-02
 STEP TIME COMPLETED       0.400    ,  TOTAL TIME COMPLETED        0.400    


  INCREMENT    41 STARTS. ATTEMPT NUMBER  1, TIME INCREMENT  1.000E-02

  NUMBER OF EQUATIONS =         8     NUMBER OF RHS =    1
  NUMBER OF FLOATING PT. OPERATIONS =  2.04E+02

     CHECK POINT   START OF SOLVER    

     CHECK POINT  END OF SOLVER       

       ELAPSED USER TIME (SEC)      =   0.0000    
       ELAPSED SYSTEM TIME (SEC)    =   0.0000    
       ELAPSED TOTAL CPU TIME (SEC) =   0.0000    
       ELAPSED WALLCLOCK TIME (SEC) =          0

               CONVERGENCE CHECKS FOR EQUILIBRIUM ITERATION     1


 AVERAGE FORCE                      9.908E-02   TIME AVG. FORCE       5.072E-02
 LARGEST RESIDUAL FORCE            -1.388E-17   AT NODE          4   DOF  1
 LARGEST INCREMENT OF DISP.         1.508E-05   AT NODE          3   DOF  1
 LARGEST CORRECTION TO DISP.        3.969E-20   AT NODE          3   DOF  1
          THE FORCE     EQUILIBRIUM RESPONSE WAS LINEAR IN THIS INCREMENT

 ITERATION SUMMARY FOR THE INCREMENT:   1 TOTAL ITERATIONS, OF WHICH
   0 ARE SEVERE DISCONTINUITY ITERATIONS AND  1 ARE EQUILIBRIUM ITERATIONS.

 CURRENT VALUE OF MONITOR NODE          3 D.O.F.  1 IS   6.183E-04

 TIME INCREMENT COMPLETED  1.000E-02,  FRACTION OF STEP COMPLETED  3.727E-02
 STEP TIME COMPLETED       0.410    ,  TOTAL TIME COMPLETED        0.410    


  INCREMENT    42 STARTS. ATTEMPT NUMBER  1, TIME INCREMENT  1.000E-02

  NUMBER OF EQUATIONS =         8     NUMBER OF RHS =    1
  NUMBER OF FLOATING PT. OPERATIONS =  2.04E+02

     CHECK POINT   START OF SOLVER    

     CHECK POINT  END OF SOLVER       

       ELAPSED USER TIME (SEC)      =   0.0000    
       ELAPSED SYSTEM TIME (SEC)    =   0.0000    
       ELAPSED TOTAL CPU TIME (SEC) =   0.0000    
       ELAPSED WALLCLOCK TIME (SEC) =          0

               CONVERGENCE CHECKS FOR EQUILIBRIUM ITERATION     1


 AVERAGE FORCE                      0.102       TIME AVG. FORCE       5.193E-02
 LARGEST RESIDUAL FORCE            -3.469E-18   AT NODE          3   DOF  1
 LARGEST INCREMENT OF DISP.         1.508E-05   AT NODE          3   DOF  1
 LARGEST CORRECTION TO DISP.        3.789E-20   AT NODE          4   DOF  1
          THE FORCE     EQUILIBRIUM RESPONSE WAS LINEAR IN THIS INCREMENT

 ITERATION SUMMARY FOR THE INCREMENT:   1 TOTAL ITERATIONS, OF WHICH
   0 ARE SEVERE DISCONTINUITY ITERATIONS AND  1 ARE EQUILIBRIUM ITERATIONS.

 CURRENT VALUE OF MONITOR NODE          3 D.O.F.  1 IS   6.334E-04

 TIME INCREMENT COMPLETED  1.000E-02,  FRACTION OF STEP COMPLETED  3.818E-02
 STEP TIME COMPLETED       0.420    ,  TOTAL TIME COMPLETED        0.420    


  INCREMENT    43 STARTS. ATTEMPT NUMBER  1, TIME INCREMENT  1.000E-02

  NUMBER OF EQUATIONS =         8     NUMBER OF RHS =    1
  NUMBER OF FLOATING PT. OPERATIONS =  2.04E+02

     CHECK POINT   START OF SOLVER    

     CHECK POINT  END OF SOLVER       

       ELAPSED USER TIME (SEC)      =   0.0000    
       ELAPSED SYSTEM TIME (SEC)    =   0.0000    
       ELAPSED TOTAL CPU TIME (SEC) =   0.0000    
       ELAPSED WALLCLOCK TIME (SEC) =          0

               CONVERGENCE CHECKS FOR EQUILIBRIUM ITERATION     1


 AVERAGE FORCE                      0.104       TIME AVG. FORCE       5.314E-02
 LARGEST RESIDUAL FORCE            -2.776E-17   AT NODE          3   DOF  1
 LARGEST INCREMENT OF DISP.         1.508E-05   AT NODE          3   DOF  1
 LARGEST CORRECTION TO DISP.        8.948E-20   AT NODE          3   DOF  1
          THE FORCE     EQUILIBRIUM RESPONSE WAS LINEAR IN THIS INCREMENT

 ITERATION SUMMARY FOR THE INCREMENT:   1 TOTAL ITERATIONS, OF WHICH
   0 ARE SEVERE DISCONTINUITY ITERATIONS AND  1 ARE EQUILIBRIUM ITERATIONS.

 CURRENT VALUE OF MONITOR NODE          3 D.O.F.  1 IS   6.484E-04

 TIME INCREMENT COMPLETED  1.000E-02,  FRACTION OF STEP COMPLETED  3.909E-02
 STEP TIME COMPLETED       0.430    ,  TOTAL TIME COMPLETED        0.430    


  INCREMENT    44 STARTS. ATTEMPT NUMBER  1, TIME INCREMENT  1.000E-02

  NUMBER OF EQUATIONS =         8     NUMBER OF RHS =    1
  NUMBER OF FLOATING PT. OPERATIONS =  2.04E+02

     CHECK POINT   START OF SOLVER    

     CHECK POINT  END OF SOLVER       

       ELAPSED USER TIME (SEC)      =   0.0000    
       ELAPSED SYSTEM TIME (SEC)    =   0.0000    
       ELAPSED TOTAL CPU TIME (SEC) =   0.0000    
       ELAPSED WALLCLOCK TIME (SEC) =          0

               CONVERGENCE CHECKS FOR EQUILIBRIUM ITERATION     1


 AVERAGE FORCE                      0.106       TIME AVG. FORCE       5.435E-02
 LARGEST RESIDUAL FORCE             2.429E-17   AT NODE          3   DOF  1
 LARGEST INCREMENT OF DISP.         1.508E-05   AT NODE          4   DOF  1
 LARGEST CORRECTION TO DISP.       -2.796E-19   AT NODE          3   DOF  1
          THE FORCE     EQUILIBRIUM RESPONSE WAS LINEAR IN THIS INCREMENT

 ITERATION SUMMARY FOR THE INCREMENT:   1 TOTAL ITERATIONS, OF WHICH
   0 ARE SEVERE DISCONTINUITY ITERATIONS AND  1 ARE EQUILIBRIUM ITERATIONS.

 CURRENT VALUE OF MONITOR NODE          3 D.O.F.  1 IS   6.635E-04

 TIME INCREMENT COMPLETED  1.000E-02,  FRACTION OF STEP COMPLETED  4.000E-02
 STEP TIME COMPLETED       0.440    ,  TOTAL TIME COMPLETED        0.440    


  INCREMENT    45 STARTS. ATTEMPT NUMBER  1, TIME INCREMENT  1.000E-02

  NUMBER OF EQUATIONS =         8     NUMBER OF RHS =    1
  NUMBER OF FLOATING PT. OPERATIONS =  2.04E+02

     CHECK POINT   START OF SOLVER    

     CHECK POINT  END OF SOLVER       

       ELAPSED USER TIME (SEC)      =   0.0000    
       ELAPSED SYSTEM TIME (SEC)    =   0.0000    
       ELAPSED TOTAL CPU TIME (SEC) =   0.0000    
       ELAPSED WALLCLOCK TIME (SEC) =          0

               CONVERGENCE CHECKS FOR EQUILIBRIUM ITERATION     1


 AVERAGE FORCE                      0.109       TIME AVG. FORCE       5.556E-02
 LARGEST RESIDUAL FORCE             3.469E-18   AT NODE          3   DOF  1
 LARGEST INCREMENT OF DISP.         1.508E-05   AT NODE          3   DOF  1
 LARGEST CORRECTION TO DISP.        3.691E-19   AT NODE          3   DOF  1
          THE FORCE     EQUILIBRIUM RESPONSE WAS LINEAR IN THIS INCREMENT

 ITERATION SUMMARY FOR THE INCREMENT:   1 TOTAL ITERATIONS, OF WHICH
   0 ARE SEVERE DISCONTINUITY ITERATIONS AND  1 ARE EQUILIBRIUM ITERATIONS.

 CURRENT VALUE OF MONITOR NODE          3 D.O.F.  1 IS   6.786E-04

 TIME INCREMENT COMPLETED  1.000E-02,  FRACTION OF STEP COMPLETED  4.091E-02
 STEP TIME COMPLETED       0.450    ,  TOTAL TIME COMPLETED        0.450    


  INCREMENT    46 STARTS. ATTEMPT NUMBER  1, TIME INCREMENT  1.000E-02

  NUMBER OF EQUATIONS =         8     NUMBER OF RHS =    1
  NUMBER OF FLOATING PT. OPERATIONS =  2.04E+02

     CHECK POINT   START OF SOLVER    

     CHECK POINT  END OF SOLVER       

       ELAPSED USER TIME (SEC)      =   0.0000    
       ELAPSED SYSTEM TIME (SEC)    =   0.0000    
       ELAPSED TOTAL CPU TIME (SEC) =   0.0000    
       ELAPSED WALLCLOCK TIME (SEC) =          0

               CONVERGENCE CHECKS FOR EQUILIBRIUM ITERATION     1


 AVERAGE FORCE                      0.111       TIME AVG. FORCE       5.677E-02
 LARGEST RESIDUAL FORCE            -2.082E-17   AT NODE          3   DOF  1
 LARGEST INCREMENT OF DISP.         1.508E-05   AT NODE          4   DOF  1
 LARGEST CORRECTION TO DISP.        1.277E-19   AT NODE          4   DOF  1
          THE FORCE     EQUILIBRIUM RESPONSE WAS LINEAR IN THIS INCREMENT

 ITERATION SUMMARY FOR THE INCREMENT:   1 TOTAL ITERATIONS, OF WHICH
   0 ARE SEVERE DISCONTINUITY ITERATIONS AND  1 ARE EQUILIBRIUM ITERATIONS.

 CURRENT VALUE OF MONITOR NODE          3 D.O.F.  1 IS   6.937E-04

 TIME INCREMENT COMPLETED  1.000E-02,  FRACTION OF STEP COMPLETED  4.182E-02
 STEP TIME COMPLETED       0.460    ,  TOTAL TIME COMPLETED        0.460    


  INCREMENT    47 STARTS. ATTEMPT NUMBER  1, TIME INCREMENT  1.000E-02

  NUMBER OF EQUATIONS =         8     NUMBER OF RHS =    1
  NUMBER OF FLOATING PT. OPERATIONS =  2.04E+02

     CHECK POINT   START OF SOLVER    

     CHECK POINT  END OF SOLVER       

       ELAPSED USER TIME (SEC)      =   0.0000    
       ELAPSED SYSTEM TIME (SEC)    =   0.0000    
       ELAPSED TOTAL CPU TIME (SEC) =   0.0000    
       ELAPSED WALLCLOCK TIME (SEC) =          0

               CONVERGENCE CHECKS FOR EQUILIBRIUM ITERATION     1


 AVERAGE FORCE                      0.114       TIME AVG. FORCE       5.797E-02
 LARGEST RESIDUAL FORCE            -2.429E-17   AT NODE          3   DOF  1
 LARGEST INCREMENT OF DISP.         1.508E-05   AT NODE          3   DOF  1
 LARGEST CORRECTION TO DISP.       -4.059E-19   AT NODE          4   DOF  1
          THE FORCE     EQUILIBRIUM RESPONSE WAS LINEAR IN THIS INCREMENT

 ITERATION SUMMARY FOR THE INCREMENT:   1 TOTAL ITERATIONS, OF WHICH
   0 ARE SEVERE DISCONTINUITY ITERATIONS AND  1 ARE EQUILIBRIUM ITERATIONS.

 CURRENT VALUE OF MONITOR NODE          3 D.O.F.  1 IS   7.088E-04

 TIME INCREMENT COMPLETED  1.000E-02,  FRACTION OF STEP COMPLETED  4.273E-02
 STEP TIME COMPLETED       0.470    ,  TOTAL TIME COMPLETED        0.470    


  INCREMENT    48 STARTS. ATTEMPT NUMBER  1, TIME INCREMENT  1.000E-02

  NUMBER OF EQUATIONS =         8     NUMBER OF RHS =    1
  NUMBER OF FLOATING PT. OPERATIONS =  2.04E+02

     CHECK POINT   START OF SOLVER    

     CHECK POINT  END OF SOLVER       

       ELAPSED USER TIME (SEC)      =   0.0000    
       ELAPSED SYSTEM TIME (SEC)    =   0.0000    
       ELAPSED TOTAL CPU TIME (SEC) =   0.0000    
       ELAPSED WALLCLOCK TIME (SEC) =          0

               CONVERGENCE CHECKS FOR EQUILIBRIUM ITERATION     1


 AVERAGE FORCE                      0.116       TIME AVG. FORCE       5.918E-02
 LARGEST RESIDUAL FORCE            -3.469E-17   AT NODE          3   DOF  1
 LARGEST INCREMENT OF DISP.         1.508E-05   AT NODE          4   DOF  1
 LARGEST CORRECTION TO DISP.        2.201E-19   AT NODE          4   DOF  1
          THE FORCE     EQUILIBRIUM RESPONSE WAS LINEAR IN THIS INCREMENT

 ITERATION SUMMARY FOR THE INCREMENT:   1 TOTAL ITERATIONS, OF WHICH
   0 ARE SEVERE DISCONTINUITY ITERATIONS AND  1 ARE EQUILIBRIUM ITERATIONS.

 CURRENT VALUE OF MONITOR NODE          3 D.O.F.  1 IS   7.238E-04

 TIME INCREMENT COMPLETED  1.000E-02,  FRACTION OF STEP COMPLETED  4.364E-02
 STEP TIME COMPLETED       0.480    ,  TOTAL TIME COMPLETED        0.480    


  INCREMENT    49 STARTS. ATTEMPT NUMBER  1, TIME INCREMENT  1.000E-02

  NUMBER OF EQUATIONS =         8     NUMBER OF RHS =    1
  NUMBER OF FLOATING PT. OPERATIONS =  2.04E+02

     CHECK POINT   START OF SOLVER    

     CHECK POINT  END OF SOLVER       

       ELAPSED USER TIME (SEC)      =   0.0000    
       ELAPSED SYSTEM TIME (SEC)    =   0.0000    
       ELAPSED TOTAL CPU TIME (SEC) =   0.0000    
       ELAPSED WALLCLOCK TIME (SEC) =          0

               CONVERGENCE CHECKS FOR EQUILIBRIUM ITERATION     1


 AVERAGE FORCE                      0.118       TIME AVG. FORCE       6.039E-02
 LARGEST RESIDUAL FORCE             6.939E-18   AT NODE          3   DOF  1
 LARGEST INCREMENT OF DISP.         1.508E-05   AT NODE          4   DOF  1
 LARGEST CORRECTION TO DISP.       -2.114E-19   AT NODE          3   DOF  1
          THE FORCE     EQUILIBRIUM RESPONSE WAS LINEAR IN THIS INCREMENT

 ITERATION SUMMARY FOR THE INCREMENT:   1 TOTAL ITERATIONS, OF WHICH
   0 ARE SEVERE DISCONTINUITY ITERATIONS AND  1 ARE EQUILIBRIUM ITERATIONS.

 CURRENT VALUE OF MONITOR NODE          3 D.O.F.  1 IS   7.389E-04

 TIME INCREMENT COMPLETED  1.000E-02,  FRACTION OF STEP COMPLETED  4.455E-02
 STEP TIME COMPLETED       0.490    ,  TOTAL TIME COMPLETED        0.490    


  INCREMENT    50 STARTS. ATTEMPT NUMBER  1, TIME INCREMENT  1.000E-02

  NUMBER OF EQUATIONS =         8     NUMBER OF RHS =    1
  NUMBER OF FLOATING PT. OPERATIONS =  2.04E+02

     CHECK POINT   START OF SOLVER    

     CHECK POINT  END OF SOLVER       

       ELAPSED USER TIME (SEC)      =   0.0000    
       ELAPSED SYSTEM TIME (SEC)    =   0.0000    
       ELAPSED TOTAL CPU TIME (SEC) =   0.0000    
       ELAPSED WALLCLOCK TIME (SEC) =          0

               CONVERGENCE CHECKS FOR EQUILIBRIUM ITERATION     1


 AVERAGE FORCE                      0.121       TIME AVG. FORCE       6.160E-02
 LARGEST RESIDUAL FORCE             3.469E-18   AT NODE          3   DOF  1
 LARGEST INCREMENT OF DISP.         1.508E-05   AT NODE          3   DOF  1
 LARGEST CORRECTION TO DISP.        1.353E-19   AT NODE          3   DOF  1
          THE FORCE     EQUILIBRIUM RESPONSE WAS LINEAR IN THIS INCREMENT

 ITERATION SUMMARY FOR THE INCREMENT:   1 TOTAL ITERATIONS, OF WHICH
   0 ARE SEVERE DISCONTINUITY ITERATIONS AND  1 ARE EQUILIBRIUM ITERATIONS.

 CURRENT VALUE OF MONITOR NODE          3 D.O.F.  1 IS   7.540E-04

 TIME INCREMENT COMPLETED  1.000E-02,  FRACTION OF STEP COMPLETED  4.545E-02
 STEP TIME COMPLETED       0.500    ,  TOTAL TIME COMPLETED        0.500    


  INCREMENT    51 STARTS. ATTEMPT NUMBER  1, TIME INCREMENT  1.000E-02

  NUMBER OF EQUATIONS =         8     NUMBER OF RHS =    1
  NUMBER OF FLOATING PT. OPERATIONS =  2.04E+02

     CHECK POINT   START OF SOLVER    

     CHECK POINT  END OF SOLVER       

       ELAPSED USER TIME (SEC)      =   0.0000    
       ELAPSED SYSTEM TIME (SEC)    =   0.0000    
       ELAPSED TOTAL CPU TIME (SEC) =   0.0000    
       ELAPSED WALLCLOCK TIME (SEC) =          0

               CONVERGENCE CHECKS FOR EQUILIBRIUM ITERATION     1


 AVERAGE FORCE                      0.123       TIME AVG. FORCE       6.281E-02
 LARGEST RESIDUAL FORCE             2.082E-17   AT NODE          3   DOF  1
 LARGEST INCREMENT OF DISP.         1.508E-05   AT NODE          4   DOF  1
 LARGEST CORRECTION TO DISP.        6.567E-20   AT NODE          4   DOF  1
          THE FORCE     EQUILIBRIUM RESPONSE WAS LINEAR IN THIS INCREMENT

 ITERATION SUMMARY FOR THE INCREMENT:   1 TOTAL ITERATIONS, OF WHICH
   0 ARE SEVERE DISCONTINUITY ITERATIONS AND  1 ARE EQUILIBRIUM ITERATIONS.

 CURRENT VALUE OF MONITOR NODE          3 D.O.F.  1 IS   7.691E-04

 TIME INCREMENT COMPLETED  1.000E-02,  FRACTION OF STEP COMPLETED  4.636E-02
 STEP TIME COMPLETED       0.510    ,  TOTAL TIME COMPLETED        0.510    


  INCREMENT    52 STARTS. ATTEMPT NUMBER  1, TIME INCREMENT  1.000E-02

  NUMBER OF EQUATIONS =         8     NUMBER OF RHS =    1
  NUMBER OF FLOATING PT. OPERATIONS =  2.04E+02

     CHECK POINT   START OF SOLVER    

     CHECK POINT  END OF SOLVER       

       ELAPSED USER TIME (SEC)      =   0.0000    
       ELAPSED SYSTEM TIME (SEC)    =   0.0000    
       ELAPSED TOTAL CPU TIME (SEC) =   0.0000    
       ELAPSED WALLCLOCK TIME (SEC) =          0

               CONVERGENCE CHECKS FOR EQUILIBRIUM ITERATION     1


 AVERAGE FORCE                      0.126       TIME AVG. FORCE       6.402E-02
 LARGEST RESIDUAL FORCE            -5.551E-17   AT NODE          4   DOF  1
 LARGEST INCREMENT OF DISP.         1.508E-05   AT NODE          3   DOF  1
 LARGEST CORRECTION TO DISP.        3.781E-19   AT NODE          3   DOF  1
          THE FORCE     EQUILIBRIUM RESPONSE WAS LINEAR IN THIS INCREMENT

 ITERATION SUMMARY FOR THE INCREMENT:   1 TOTAL ITERATIONS, OF WHICH
   0 ARE SEVERE DISCONTINUITY ITERATIONS AND  1 ARE EQUILIBRIUM ITERATIONS.

 CURRENT VALUE OF MONITOR NODE          3 D.O.F.  1 IS   7.842E-04

 TIME INCREMENT COMPLETED  1.000E-02,  FRACTION OF STEP COMPLETED  4.727E-02
 STEP TIME COMPLETED       0.520    ,  TOTAL TIME COMPLETED        0.520    


  INCREMENT    53 STARTS. ATTEMPT NUMBER  1, TIME INCREMENT  1.000E-02

  NUMBER OF EQUATIONS =         8     NUMBER OF RHS =    1
  NUMBER OF FLOATING PT. OPERATIONS =  2.04E+02

     CHECK POINT   START OF SOLVER    

     CHECK POINT  END OF SOLVER       

       ELAPSED USER TIME (SEC)      =   0.0000    
       ELAPSED SYSTEM TIME (SEC)    =   0.0000    
       ELAPSED TOTAL CPU TIME (SEC) =   0.0000    
       ELAPSED WALLCLOCK TIME (SEC) =          0

               CONVERGENCE CHECKS FOR EQUILIBRIUM ITERATION     1


 AVERAGE FORCE                      0.128       TIME AVG. FORCE       6.523E-02
 ALL FORCE     RESIDUALS ARE ZERO
 LARGEST INCREMENT OF DISP.         1.508E-05   AT NODE          3   DOF  1
 LARGEST CORRECTION TO DISP.       -5.773E-19   AT NODE          3   DOF  1
          THE FORCE     EQUILIBRIUM RESPONSE WAS LINEAR IN THIS INCREMENT

 ITERATION SUMMARY FOR THE INCREMENT:   1 TOTAL ITERATIONS, OF WHICH
   0 ARE SEVERE DISCONTINUITY ITERATIONS AND  1 ARE EQUILIBRIUM ITERATIONS.

 CURRENT VALUE OF MONITOR NODE          3 D.O.F.  1 IS   7.992E-04

 TIME INCREMENT COMPLETED  1.000E-02,  FRACTION OF STEP COMPLETED  4.818E-02
 STEP TIME COMPLETED       0.530    ,  TOTAL TIME COMPLETED        0.530    


  INCREMENT    54 STARTS. ATTEMPT NUMBER  1, TIME INCREMENT  1.000E-02

  NUMBER OF EQUATIONS =         8     NUMBER OF RHS =    1
  NUMBER OF FLOATING PT. OPERATIONS =  2.04E+02

     CHECK POINT   START OF SOLVER    

     CHECK POINT  END OF SOLVER       

       ELAPSED USER TIME (SEC)      =   0.0000    
       ELAPSED SYSTEM TIME (SEC)    =   0.0000    
       ELAPSED TOTAL CPU TIME (SEC) =   0.0000    
       ELAPSED WALLCLOCK TIME (SEC) =          0

               CONVERGENCE CHECKS FOR EQUILIBRIUM ITERATION     1


 AVERAGE FORCE                      0.131       TIME AVG. FORCE       6.644E-02
 ALL FORCE     RESIDUALS ARE ZERO
 LARGEST INCREMENT OF DISP.         1.508E-05   AT NODE          3   DOF  1
 LARGEST CORRECTION TO DISP.        2.887E-19   AT NODE          3   DOF  1
          THE FORCE     EQUILIBRIUM RESPONSE WAS LINEAR IN THIS INCREMENT

 ITERATION SUMMARY FOR THE INCREMENT:   1 TOTAL ITERATIONS, OF WHICH
   0 ARE SEVERE DISCONTINUITY ITERATIONS AND  1 ARE EQUILIBRIUM ITERATIONS.

 CURRENT VALUE OF MONITOR NODE          3 D.O.F.  1 IS   8.143E-04

 TIME INCREMENT COMPLETED  1.000E-02,  FRACTION OF STEP COMPLETED  4.909E-02
 STEP TIME COMPLETED       0.540    ,  TOTAL TIME COMPLETED        0.540    


  INCREMENT    55 STARTS. ATTEMPT NUMBER  1, TIME INCREMENT  1.000E-02

  NUMBER OF EQUATIONS =         8     NUMBER OF RHS =    1
  NUMBER OF FLOATING PT. OPERATIONS =  2.04E+02

     CHECK POINT   START OF SOLVER    

     CHECK POINT  END OF SOLVER       

       ELAPSED USER TIME (SEC)      =   0.0000    
       ELAPSED SYSTEM TIME (SEC)    =   0.0000    
       ELAPSED TOTAL CPU TIME (SEC) =   0.0000    
       ELAPSED WALLCLOCK TIME (SEC) =          0

               CONVERGENCE CHECKS FOR EQUILIBRIUM ITERATION     1


 AVERAGE FORCE                      0.133       TIME AVG. FORCE       6.764E-02
 LARGEST RESIDUAL FORCE             2.776E-17   AT NODE          4   DOF  1
 LARGEST INCREMENT OF DISP.         1.508E-05   AT NODE          4   DOF  1
 LARGEST CORRECTION TO DISP.       -1.891E-19   AT NODE          3   DOF  1
          THE FORCE     EQUILIBRIUM RESPONSE WAS LINEAR IN THIS INCREMENT

 ITERATION SUMMARY FOR THE INCREMENT:   1 TOTAL ITERATIONS, OF WHICH
   0 ARE SEVERE DISCONTINUITY ITERATIONS AND  1 ARE EQUILIBRIUM ITERATIONS.

 CURRENT VALUE OF MONITOR NODE          3 D.O.F.  1 IS   8.294E-04

 TIME INCREMENT COMPLETED  1.000E-02,  FRACTION OF STEP COMPLETED  5.000E-02
 STEP TIME COMPLETED       0.550    ,  TOTAL TIME COMPLETED        0.550    


  INCREMENT    56 STARTS. ATTEMPT NUMBER  1, TIME INCREMENT  1.000E-02

  NUMBER OF EQUATIONS =         8     NUMBER OF RHS =    1
  NUMBER OF FLOATING PT. OPERATIONS =  2.04E+02

     CHECK POINT   START OF SOLVER    

     CHECK POINT  END OF SOLVER       

       ELAPSED USER TIME (SEC)      =   0.0000    
       ELAPSED SYSTEM TIME (SEC)    =   0.0000    
       ELAPSED TOTAL CPU TIME (SEC) =   0.0000    
       ELAPSED WALLCLOCK TIME (SEC) =          0

               CONVERGENCE CHECKS FOR EQUILIBRIUM ITERATION     1


 AVERAGE FORCE                      0.135       TIME AVG. FORCE       6.885E-02
 LARGEST RESIDUAL FORCE            -2.776E-17   AT NODE          4   DOF  1
 LARGEST INCREMENT OF DISP.         1.508E-05   AT NODE          4   DOF  1
 LARGEST CORRECTION TO DISP.        5.362E-19   AT NODE          4   DOF  1
          THE FORCE     EQUILIBRIUM RESPONSE WAS LINEAR IN THIS INCREMENT

 ITERATION SUMMARY FOR THE INCREMENT:   1 TOTAL ITERATIONS, OF WHICH
   0 ARE SEVERE DISCONTINUITY ITERATIONS AND  1 ARE EQUILIBRIUM ITERATIONS.

 CURRENT VALUE OF MONITOR NODE          3 D.O.F.  1 IS   8.445E-04

 TIME INCREMENT COMPLETED  1.000E-02,  FRACTION OF STEP COMPLETED  5.091E-02
 STEP TIME COMPLETED       0.560    ,  TOTAL TIME COMPLETED        0.560    


  INCREMENT    57 STARTS. ATTEMPT NUMBER  1, TIME INCREMENT  1.000E-02

  NUMBER OF EQUATIONS =         8     NUMBER OF RHS =    1
  NUMBER OF FLOATING PT. OPERATIONS =  2.04E+02

     CHECK POINT   START OF SOLVER    

     CHECK POINT  END OF SOLVER       

       ELAPSED USER TIME (SEC)      =   0.0000    
       ELAPSED SYSTEM TIME (SEC)    =   0.0000    
       ELAPSED TOTAL CPU TIME (SEC) =   0.0000    
       ELAPSED WALLCLOCK TIME (SEC) =          0

               CONVERGENCE CHECKS FOR EQUILIBRIUM ITERATION     1


 AVERAGE FORCE                      0.138       TIME AVG. FORCE       7.006E-02
 LARGEST RESIDUAL FORCE             2.776E-17   AT NODE          4   DOF  1
 LARGEST INCREMENT OF DISP.         1.508E-05   AT NODE          3   DOF  1
 LARGEST CORRECTION TO DISP.       -6.394E-19   AT NODE          4   DOF  1
          THE FORCE     EQUILIBRIUM RESPONSE WAS LINEAR IN THIS INCREMENT

 ITERATION SUMMARY FOR THE INCREMENT:   1 TOTAL ITERATIONS, OF WHICH
   0 ARE SEVERE DISCONTINUITY ITERATIONS AND  1 ARE EQUILIBRIUM ITERATIONS.

 CURRENT VALUE OF MONITOR NODE          3 D.O.F.  1 IS   8.596E-04

 TIME INCREMENT COMPLETED  1.000E-02,  FRACTION OF STEP COMPLETED  5.182E-02
 STEP TIME COMPLETED       0.570    ,  TOTAL TIME COMPLETED        0.570    


  INCREMENT    58 STARTS. ATTEMPT NUMBER  1, TIME INCREMENT  1.000E-02

  NUMBER OF EQUATIONS =         8     NUMBER OF RHS =    1
  NUMBER OF FLOATING PT. OPERATIONS =  2.04E+02

     CHECK POINT   START OF SOLVER    

     CHECK POINT  END OF SOLVER       

       ELAPSED USER TIME (SEC)      =   0.0000    
       ELAPSED SYSTEM TIME (SEC)    =   0.0000    
       ELAPSED TOTAL CPU TIME (SEC) =   0.0000    
       ELAPSED WALLCLOCK TIME (SEC) =          0

               CONVERGENCE CHECKS FOR EQUILIBRIUM ITERATION     1


 AVERAGE FORCE                      0.140       TIME AVG. FORCE       7.127E-02
 LARGEST RESIDUAL FORCE             6.939E-18   AT NODE          3   DOF  1
 LARGEST INCREMENT OF DISP.         1.508E-05   AT NODE          3   DOF  1
 LARGEST CORRECTION TO DISP.        3.110E-19   AT NODE          3   DOF  1
          THE FORCE     EQUILIBRIUM RESPONSE WAS LINEAR IN THIS INCREMENT

 ITERATION SUMMARY FOR THE INCREMENT:   1 TOTAL ITERATIONS, OF WHICH
   0 ARE SEVERE DISCONTINUITY ITERATIONS AND  1 ARE EQUILIBRIUM ITERATIONS.

 CURRENT VALUE OF MONITOR NODE          3 D.O.F.  1 IS   8.746E-04

 TIME INCREMENT COMPLETED  1.000E-02,  FRACTION OF STEP COMPLETED  5.273E-02
 STEP TIME COMPLETED       0.580    ,  TOTAL TIME COMPLETED        0.580    


  INCREMENT    59 STARTS. ATTEMPT NUMBER  1, TIME INCREMENT  1.000E-02

  NUMBER OF EQUATIONS =         8     NUMBER OF RHS =    1
  NUMBER OF FLOATING PT. OPERATIONS =  2.04E+02

     CHECK POINT   START OF SOLVER    

[...]
          THE FORCE     EQUILIBRIUM EQUATIONS HAVE CONVERGED

 ITERATION SUMMARY FOR THE INCREMENT:   1 TOTAL ITERATIONS, OF WHICH
   0 ARE SEVERE DISCONTINUITY ITERATIONS AND  1 ARE EQUILIBRIUM ITERATIONS.

 CURRENT VALUE OF MONITOR NODE          3 D.O.F.  1 IS   4.572E-02

 TIME INCREMENT COMPLETED  1.000E-02,  FRACTION OF STEP COMPLETED  0.987    
 STEP TIME COMPLETED        10.9    ,  TOTAL TIME COMPLETED         10.9    


  INCREMENT  1087 STARTS. ATTEMPT NUMBER  1, TIME INCREMENT  1.000E-02

  NUMBER OF EQUATIONS =         8     NUMBER OF RHS =    1
  NUMBER OF FLOATING PT. OPERATIONS =  2.04E+02

     CHECK POINT   START OF SOLVER    

     CHECK POINT  END OF SOLVER       

       ELAPSED USER TIME (SEC)      =   0.0000    
       ELAPSED SYSTEM TIME (SEC)    =   0.0000    
       ELAPSED TOTAL CPU TIME (SEC) =   0.0000    
       ELAPSED WALLCLOCK TIME (SEC) =          0

               CONVERGENCE CHECKS FOR EQUILIBRIUM ITERATION     1


 AVERAGE FORCE                       2.39       TIME AVG. FORCE       0.817    
 LARGEST RESIDUAL FORCE            -1.311E-07   AT NODE          3   DOF  1
 LARGEST INCREMENT OF DISP.         5.882E-04   AT NODE          3   DOF  1
 LARGEST CORRECTION TO DISP.        4.253E-09   AT NODE          3   DOF  1
          THE FORCE     EQUILIBRIUM EQUATIONS HAVE CONVERGED

 ITERATION SUMMARY FOR THE INCREMENT:   1 TOTAL ITERATIONS, OF WHICH
   0 ARE SEVERE DISCONTINUITY ITERATIONS AND  1 ARE EQUILIBRIUM ITERATIONS.

 CURRENT VALUE OF MONITOR NODE          3 D.O.F.  1 IS   4.630E-02

 TIME INCREMENT COMPLETED  1.000E-02,  FRACTION OF STEP COMPLETED  0.988    
 STEP TIME COMPLETED        10.9    ,  TOTAL TIME COMPLETED         10.9    


  INCREMENT  1088 STARTS. ATTEMPT NUMBER  1, TIME INCREMENT  1.000E-02

  NUMBER OF EQUATIONS =         8     NUMBER OF RHS =    1
  NUMBER OF FLOATING PT. OPERATIONS =  2.04E+02

     CHECK POINT   START OF SOLVER    

     CHECK POINT  END OF SOLVER       

       ELAPSED USER TIME (SEC)      =   0.0000    
       ELAPSED SYSTEM TIME (SEC)    =   0.0000    
       ELAPSED TOTAL CPU TIME (SEC) =   0.0000    
       ELAPSED WALLCLOCK TIME (SEC) =          0

               CONVERGENCE CHECKS FOR EQUILIBRIUM ITERATION     1


 AVERAGE FORCE                       2.40       TIME AVG. FORCE       0.818    
 LARGEST RESIDUAL FORCE            -1.940E-07   AT NODE          4   DOF  1
 LARGEST INCREMENT OF DISP.         5.882E-04   AT NODE          4   DOF  1
 LARGEST CORRECTION TO DISP.        9.906E-09   AT NODE          4   DOF  1
          THE FORCE     EQUILIBRIUM EQUATIONS HAVE CONVERGED

 ITERATION SUMMARY FOR THE INCREMENT:   1 TOTAL ITERATIONS, OF WHICH
   0 ARE SEVERE DISCONTINUITY ITERATIONS AND  1 ARE EQUILIBRIUM ITERATIONS.

 CURRENT VALUE OF MONITOR NODE          3 D.O.F.  1 IS   4.689E-02

 TIME INCREMENT COMPLETED  1.000E-02,  FRACTION OF STEP COMPLETED  0.989    
 STEP TIME COMPLETED        10.9    ,  TOTAL TIME COMPLETED         10.9    


  INCREMENT  1089 STARTS. ATTEMPT NUMBER  1, TIME INCREMENT  1.000E-02

  NUMBER OF EQUATIONS =         8     NUMBER OF RHS =    1
  NUMBER OF FLOATING PT. OPERATIONS =  2.04E+02

     CHECK POINT   START OF SOLVER    

     CHECK POINT  END OF SOLVER       

       ELAPSED USER TIME (SEC)      =   0.0000    
       ELAPSED SYSTEM TIME (SEC)    =   0.0000    
       ELAPSED TOTAL CPU TIME (SEC) =   0.0000    
       ELAPSED WALLCLOCK TIME (SEC) =          0

               CONVERGENCE CHECKS FOR EQUILIBRIUM ITERATION     1


 AVERAGE FORCE                       2.41       TIME AVG. FORCE       0.820    
 LARGEST RESIDUAL FORCE            -1.283E-07   AT NODE          3   DOF  1
 LARGEST INCREMENT OF DISP.         5.882E-04   AT NODE          3   DOF  1
 LARGEST CORRECTION TO DISP.       -2.031E-08   AT NODE          4   DOF  1
          THE FORCE     EQUILIBRIUM EQUATIONS HAVE CONVERGED

 ITERATION SUMMARY FOR THE INCREMENT:   1 TOTAL ITERATIONS, OF WHICH
   0 ARE SEVERE DISCONTINUITY ITERATIONS AND  1 ARE EQUILIBRIUM ITERATIONS.

 CURRENT VALUE OF MONITOR NODE          3 D.O.F.  1 IS   4.748E-02

 TIME INCREMENT COMPLETED  1.000E-02,  FRACTION OF STEP COMPLETED  0.990    
 STEP TIME COMPLETED        10.9    ,  TOTAL TIME COMPLETED         10.9    


  INCREMENT  1090 STARTS. ATTEMPT NUMBER  1, TIME INCREMENT  1.000E-02

  NUMBER OF EQUATIONS =         8     NUMBER OF RHS =    1
  NUMBER OF FLOATING PT. OPERATIONS =  2.04E+02

     CHECK POINT   START OF SOLVER    

     CHECK POINT  END OF SOLVER       

       ELAPSED USER TIME (SEC)      =   0.0000    
       ELAPSED SYSTEM TIME (SEC)    =  0.10000    
       ELAPSED TOTAL CPU TIME (SEC) =  0.10000    
       ELAPSED WALLCLOCK TIME (SEC) =          0

               CONVERGENCE CHECKS FOR EQUILIBRIUM ITERATION     1


 AVERAGE FORCE                       2.42       TIME AVG. FORCE       0.821    
 LARGEST RESIDUAL FORCE             1.819E-07   AT NODE          4   DOF  1
 LARGEST INCREMENT OF DISP.         5.882E-04   AT NODE          4   DOF  1
 LARGEST CORRECTION TO DISP.        9.481E-09   AT NODE          4   DOF  1
          THE FORCE     EQUILIBRIUM EQUATIONS HAVE CONVERGED

 ITERATION SUMMARY FOR THE INCREMENT:   1 TOTAL ITERATIONS, OF WHICH
   0 ARE SEVERE DISCONTINUITY ITERATIONS AND  1 ARE EQUILIBRIUM ITERATIONS.

 CURRENT VALUE OF MONITOR NODE          3 D.O.F.  1 IS   4.807E-02

 TIME INCREMENT COMPLETED  1.000E-02,  FRACTION OF STEP COMPLETED  0.991    
 STEP TIME COMPLETED        10.9    ,  TOTAL TIME COMPLETED         10.9    


  INCREMENT  1091 STARTS. ATTEMPT NUMBER  1, TIME INCREMENT  1.000E-02

  NUMBER OF EQUATIONS =         8     NUMBER OF RHS =    1
  NUMBER OF FLOATING PT. OPERATIONS =  2.04E+02

     CHECK POINT   START OF SOLVER    

     CHECK POINT  END OF SOLVER       

       ELAPSED USER TIME (SEC)      =   0.0000    
       ELAPSED SYSTEM TIME (SEC)    =   0.0000    
       ELAPSED TOTAL CPU TIME (SEC) =   0.0000    
       ELAPSED WALLCLOCK TIME (SEC) =          0

               CONVERGENCE CHECKS FOR EQUILIBRIUM ITERATION     1


 AVERAGE FORCE                       2.43       TIME AVG. FORCE       0.823    
 LARGEST RESIDUAL FORCE            -3.688E-09   AT NODE          4   DOF  1
 LARGEST INCREMENT OF DISP.         5.882E-04   AT NODE          4   DOF  1
 LARGEST CORRECTION TO DISP.        1.401E-08   AT NODE          4   DOF  1
          THE FORCE     EQUILIBRIUM RESPONSE WAS LINEAR IN THIS INCREMENT

 ITERATION SUMMARY FOR THE INCREMENT:   1 TOTAL ITERATIONS, OF WHICH
   0 ARE SEVERE DISCONTINUITY ITERATIONS AND  1 ARE EQUILIBRIUM ITERATIONS.

 CURRENT VALUE OF MONITOR NODE          3 D.O.F.  1 IS   4.866E-02

 TIME INCREMENT COMPLETED  1.000E-02,  FRACTION OF STEP COMPLETED  0.992    
 STEP TIME COMPLETED        10.9    ,  TOTAL TIME COMPLETED         10.9    


  INCREMENT  1092 STARTS. ATTEMPT NUMBER  1, TIME INCREMENT  1.000E-02

  NUMBER OF EQUATIONS =         8     NUMBER OF RHS =    1
  NUMBER OF FLOATING PT. OPERATIONS =  2.04E+02

     CHECK POINT   START OF SOLVER    

     CHECK POINT  END OF SOLVER       

       ELAPSED USER TIME (SEC)      =   0.0000    
       ELAPSED SYSTEM TIME (SEC)    =   0.0000    
       ELAPSED TOTAL CPU TIME (SEC) =   0.0000    
       ELAPSED WALLCLOCK TIME (SEC) =          0

               CONVERGENCE CHECKS FOR EQUILIBRIUM ITERATION     1


 AVERAGE FORCE                       2.43       TIME AVG. FORCE       0.824    
 LARGEST RESIDUAL FORCE            -5.848E-09   AT NODE          3   DOF  1
 LARGEST INCREMENT OF DISP.         5.882E-04   AT NODE          3   DOF  1
 LARGEST CORRECTION TO DISP.       -1.925E-08   AT NODE          4   DOF  1
          THE FORCE     EQUILIBRIUM RESPONSE WAS LINEAR IN THIS INCREMENT

 ITERATION SUMMARY FOR THE INCREMENT:   1 TOTAL ITERATIONS, OF WHICH
   0 ARE SEVERE DISCONTINUITY ITERATIONS AND  1 ARE EQUILIBRIUM ITERATIONS.

 CURRENT VALUE OF MONITOR NODE          3 D.O.F.  1 IS   4.924E-02

 TIME INCREMENT COMPLETED  1.000E-02,  FRACTION OF STEP COMPLETED  0.993    
 STEP TIME COMPLETED        10.9    ,  TOTAL TIME COMPLETED         10.9    


  INCREMENT  1093 STARTS. ATTEMPT NUMBER  1, TIME INCREMENT  1.000E-02

  NUMBER OF EQUATIONS =         8     NUMBER OF RHS =    1
  NUMBER OF FLOATING PT. OPERATIONS =  2.04E+02

     CHECK POINT   START OF SOLVER    

     CHECK POINT  END OF SOLVER       

       ELAPSED USER TIME (SEC)      =   0.0000    
       ELAPSED SYSTEM TIME (SEC)    =   0.0000    
       ELAPSED TOTAL CPU TIME (SEC) =   0.0000    
       ELAPSED WALLCLOCK TIME (SEC) =          0

               CONVERGENCE CHECKS FOR EQUILIBRIUM ITERATION     1


 AVERAGE FORCE                       2.44       TIME AVG. FORCE       0.826    
 LARGEST RESIDUAL FORCE             1.824E-07   AT NODE          3   DOF  1
 LARGEST INCREMENT OF DISP.         5.882E-04   AT NODE          3   DOF  1
 LARGEST CORRECTION TO DISP.        9.479E-09   AT NODE          4   DOF  1
          THE FORCE     EQUILIBRIUM EQUATIONS HAVE CONVERGED

 ITERATION SUMMARY FOR THE INCREMENT:   1 TOTAL ITERATIONS, OF WHICH
   0 ARE SEVERE DISCONTINUITY ITERATIONS AND  1 ARE EQUILIBRIUM ITERATIONS.

 CURRENT VALUE OF MONITOR NODE          3 D.O.F.  1 IS   4.983E-02

 TIME INCREMENT COMPLETED  1.000E-02,  FRACTION OF STEP COMPLETED  0.994    
 STEP TIME COMPLETED        10.9    ,  TOTAL TIME COMPLETED         10.9    


  INCREMENT  1094 STARTS. ATTEMPT NUMBER  1, TIME INCREMENT  1.000E-02

  NUMBER OF EQUATIONS =         8     NUMBER OF RHS =    1
  NUMBER OF FLOATING PT. OPERATIONS =  2.04E+02

     CHECK POINT   START OF SOLVER    

     CHECK POINT  END OF SOLVER       

       ELAPSED USER TIME (SEC)      =   0.0000    
       ELAPSED SYSTEM TIME (SEC)    =   0.0000    
       ELAPSED TOTAL CPU TIME (SEC) =   0.0000    
       ELAPSED WALLCLOCK TIME (SEC) =          0

               CONVERGENCE CHECKS FOR EQUILIBRIUM ITERATION     1


 AVERAGE FORCE                       2.45       TIME AVG. FORCE       0.827    
 LARGEST RESIDUAL FORCE             5.370E-08   AT NODE          3   DOF  1
 LARGEST INCREMENT OF DISP.         5.882E-04   AT NODE          4   DOF  1
 LARGEST CORRECTION TO DISP.        3.200E-09   AT NODE          4   DOF  1
          THE FORCE     EQUILIBRIUM EQUATIONS HAVE CONVERGED

 ITERATION SUMMARY FOR THE INCREMENT:   1 TOTAL ITERATIONS, OF WHICH
   0 ARE SEVERE DISCONTINUITY ITERATIONS AND  1 ARE EQUILIBRIUM ITERATIONS.

 CURRENT VALUE OF MONITOR NODE          3 D.O.F.  1 IS   5.042E-02

 TIME INCREMENT COMPLETED  1.000E-02,  FRACTION OF STEP COMPLETED  0.995    
 STEP TIME COMPLETED        10.9    ,  TOTAL TIME COMPLETED         10.9    


  INCREMENT  1095 STARTS. ATTEMPT NUMBER  1, TIME INCREMENT  1.000E-02

  NUMBER OF EQUATIONS =         8     NUMBER OF RHS =    1
  NUMBER OF FLOATING PT. OPERATIONS =  2.04E+02

     CHECK POINT   START OF SOLVER    

     CHECK POINT  END OF SOLVER       

       ELAPSED USER TIME (SEC)      =   0.0000    
       ELAPSED SYSTEM TIME (SEC)    =   0.0000    
       ELAPSED TOTAL CPU TIME (SEC) =   0.0000    
       ELAPSED WALLCLOCK TIME (SEC) =          0

               CONVERGENCE CHECKS FOR EQUILIBRIUM ITERATION     1


 AVERAGE FORCE                       2.46       TIME AVG. FORCE       0.829    
 LARGEST RESIDUAL FORCE            -8.551E-08   AT NODE          4   DOF  1
 LARGEST INCREMENT OF DISP.         5.882E-04   AT NODE          3   DOF  1
 LARGEST CORRECTION TO DISP.       -6.525E-09   AT NODE          4   DOF  1
          THE FORCE     EQUILIBRIUM EQUATIONS HAVE CONVERGED

 ITERATION SUMMARY FOR THE INCREMENT:   1 TOTAL ITERATIONS, OF WHICH
   0 ARE SEVERE DISCONTINUITY ITERATIONS AND  1 ARE EQUILIBRIUM ITERATIONS.

 CURRENT VALUE OF MONITOR NODE          3 D.O.F.  1 IS   5.101E-02

 TIME INCREMENT COMPLETED  1.000E-02,  FRACTION OF STEP COMPLETED  0.995    
 STEP TIME COMPLETED        10.9    ,  TOTAL TIME COMPLETED         10.9    


  INCREMENT  1096 STARTS. ATTEMPT NUMBER  1, TIME INCREMENT  1.000E-02

  NUMBER OF EQUATIONS =         8     NUMBER OF RHS =    1
  NUMBER OF FLOATING PT. OPERATIONS =  2.04E+02

     CHECK POINT   START OF SOLVER    

     CHECK POINT  END OF SOLVER       

       ELAPSED USER TIME (SEC)      =   0.0000    
       ELAPSED SYSTEM TIME (SEC)    =   0.0000    
       ELAPSED TOTAL CPU TIME (SEC) =   0.0000    
       ELAPSED WALLCLOCK TIME (SEC) =          0

               CONVERGENCE CHECKS FOR EQUILIBRIUM ITERATION     1


 AVERAGE FORCE                       2.47       TIME AVG. FORCE       0.830    
 LARGEST RESIDUAL FORCE             6.606E-09   AT NODE          3   DOF  1
 LARGEST INCREMENT OF DISP.         5.882E-04   AT NODE          4   DOF  1
 LARGEST CORRECTION TO DISP.       -8.803E-09   AT NODE          3   DOF  1
          THE FORCE     EQUILIBRIUM RESPONSE WAS LINEAR IN THIS INCREMENT

 ITERATION SUMMARY FOR THE INCREMENT:   1 TOTAL ITERATIONS, OF WHICH
   0 ARE SEVERE DISCONTINUITY ITERATIONS AND  1 ARE EQUILIBRIUM ITERATIONS.

 CURRENT VALUE OF MONITOR NODE          3 D.O.F.  1 IS   5.160E-02

 TIME INCREMENT COMPLETED  1.000E-02,  FRACTION OF STEP COMPLETED  0.996    
 STEP TIME COMPLETED        11.0    ,  TOTAL TIME COMPLETED         11.0    


  INCREMENT  1097 STARTS. ATTEMPT NUMBER  1, TIME INCREMENT  1.000E-02

  NUMBER OF EQUATIONS =         8     NUMBER OF RHS =    1
  NUMBER OF FLOATING PT. OPERATIONS =  2.04E+02

     CHECK POINT   START OF SOLVER    

     CHECK POINT  END OF SOLVER       

       ELAPSED USER TIME (SEC)      =   0.0000    
       ELAPSED SYSTEM TIME (SEC)    =   0.0000    
       ELAPSED TOTAL CPU TIME (SEC) =   0.0000    
       ELAPSED WALLCLOCK TIME (SEC) =          0

               CONVERGENCE CHECKS FOR EQUILIBRIUM ITERATION     1


 AVERAGE FORCE                       2.48       TIME AVG. FORCE       0.832    
 LARGEST RESIDUAL FORCE            -6.311E-08   AT NODE          4   DOF  1
 LARGEST INCREMENT OF DISP.         5.882E-04   AT NODE          4   DOF  1
 LARGEST CORRECTION TO DISP.        1.796E-08   AT NODE          4   DOF  1
          THE FORCE     EQUILIBRIUM EQUATIONS HAVE CONVERGED

 ITERATION SUMMARY FOR THE INCREMENT:   1 TOTAL ITERATIONS, OF WHICH
   0 ARE SEVERE DISCONTINUITY ITERATIONS AND  1 ARE EQUILIBRIUM ITERATIONS.

 CURRENT VALUE OF MONITOR NODE          3 D.O.F.  1 IS   5.219E-02

 TIME INCREMENT COMPLETED  1.000E-02,  FRACTION OF STEP COMPLETED  0.997    
 STEP TIME COMPLETED        11.0    ,  TOTAL TIME COMPLETED         11.0    


  INCREMENT  1098 STARTS. ATTEMPT NUMBER  1, TIME INCREMENT  1.000E-02

  NUMBER OF EQUATIONS =         8     NUMBER OF RHS =    1
  NUMBER OF FLOATING PT. OPERATIONS =  2.04E+02

     CHECK POINT   START OF SOLVER    

     CHECK POINT  END OF SOLVER       

       ELAPSED USER TIME (SEC)      =   0.0000    
       ELAPSED SYSTEM TIME (SEC)    =   0.0000    
       ELAPSED TOTAL CPU TIME (SEC) =   0.0000    
       ELAPSED WALLCLOCK TIME (SEC) =          0

               CONVERGENCE CHECKS FOR EQUILIBRIUM ITERATION     1


 AVERAGE FORCE                       2.48       TIME AVG. FORCE       0.833    
 LARGEST RESIDUAL FORCE             2.199E-07   AT NODE          3   DOF  1
 LARGEST INCREMENT OF DISP.         5.882E-04   AT NODE          3   DOF  1
 LARGEST CORRECTION TO DISP.       -1.356E-08   AT NODE          4   DOF  1
          THE FORCE     EQUILIBRIUM EQUATIONS HAVE CONVERGED

 ITERATION SUMMARY FOR THE INCREMENT:   1 TOTAL ITERATIONS, OF WHICH
   0 ARE SEVERE DISCONTINUITY ITERATIONS AND  1 ARE EQUILIBRIUM ITERATIONS.

 CURRENT VALUE OF MONITOR NODE          3 D.O.F.  1 IS   5.277E-02

 TIME INCREMENT COMPLETED  1.000E-02,  FRACTION OF STEP COMPLETED  0.998    
 STEP TIME COMPLETED        11.0    ,  TOTAL TIME COMPLETED         11.0    


  INCREMENT  1099 STARTS. ATTEMPT NUMBER  1, TIME INCREMENT  1.000E-02

  NUMBER OF EQUATIONS =         8     NUMBER OF RHS =    1
  NUMBER OF FLOATING PT. OPERATIONS =  2.04E+02

     CHECK POINT   START OF SOLVER    

     CHECK POINT  END OF SOLVER       

       ELAPSED USER TIME (SEC)      =   0.0000    
       ELAPSED SYSTEM TIME (SEC)    =   0.0000    
       ELAPSED TOTAL CPU TIME (SEC) =   0.0000    
       ELAPSED WALLCLOCK TIME (SEC) =          0

               CONVERGENCE CHECKS FOR EQUILIBRIUM ITERATION     1


 AVERAGE FORCE                       2.49       TIME AVG. FORCE       0.835    
 LARGEST RESIDUAL FORCE            -1.206E-07   AT NODE          4   DOF  1
 LARGEST INCREMENT OF DISP.         5.882E-04   AT NODE          4   DOF  1
 LARGEST CORRECTION TO DISP.        1.825E-08   AT NODE          4   DOF  1
          THE FORCE     EQUILIBRIUM EQUATIONS HAVE CONVERGED

 ITERATION SUMMARY FOR THE INCREMENT:   1 TOTAL ITERATIONS, OF WHICH
   0 ARE SEVERE DISCONTINUITY ITERATIONS AND  1 ARE EQUILIBRIUM ITERATIONS.

 CURRENT VALUE OF MONITOR NODE          3 D.O.F.  1 IS   5.336E-02

 TIME INCREMENT COMPLETED  1.000E-02,  FRACTION OF STEP COMPLETED  0.999    
 STEP TIME COMPLETED        11.0    ,  TOTAL TIME COMPLETED         11.0    


  INCREMENT  1100 STARTS. ATTEMPT NUMBER  1, TIME INCREMENT  1.000E-02

  NUMBER OF EQUATIONS =         8     NUMBER OF RHS =    1
  NUMBER OF FLOATING PT. OPERATIONS =  2.04E+02

     CHECK POINT   START OF SOLVER    

     CHECK POINT  END OF SOLVER       

       ELAPSED USER TIME (SEC)      =   0.0000    
       ELAPSED SYSTEM TIME (SEC)    =   0.0000    
       ELAPSED TOTAL CPU TIME (SEC) =   0.0000    
       ELAPSED WALLCLOCK TIME (SEC) =          0

               CONVERGENCE CHECKS FOR EQUILIBRIUM ITERATION     1


 AVERAGE FORCE                       2.50       TIME AVG. FORCE       0.836    
 LARGEST RESIDUAL FORCE             2.823E-07   AT NODE          4   DOF  1
 LARGEST INCREMENT OF DISP.         5.882E-04   AT NODE          3   DOF  1
 LARGEST CORRECTION TO DISP.       -1.742E-08   AT NODE          4   DOF  1
          THE FORCE     EQUILIBRIUM EQUATIONS HAVE CONVERGED

 ITERATION SUMMARY FOR THE INCREMENT:   1 TOTAL ITERATIONS, OF WHICH
   0 ARE SEVERE DISCONTINUITY ITERATIONS AND  1 ARE EQUILIBRIUM ITERATIONS.

 CURRENT VALUE OF MONITOR NODE          3 D.O.F.  1 IS   5.395E-02

 TIME INCREMENT COMPLETED  1.000E-02,  FRACTION OF STEP COMPLETED   1.00    
 STEP TIME COMPLETED        11.0    ,  TOTAL TIME COMPLETED         11.0    


          THE ANALYSIS HAS BEEN COMPLETED



     ANALYSIS SUMMARY:
     TOTAL OF       1100  INCREMENTS
                       0  CUTBACKS IN AUTOMATIC INCREMENTATION
                    1105  ITERATIONS INCLUDING CONTACT ITERATIONS IF PRESENT
                    1105  PASSES THROUGH THE EQUATION SOLVER OF WHICH 
                     568  INVOLVE MATRIX DECOMPOSITION, INCLUDING
                       0  DECOMPOSITION(S) OF THE MASS MATRIX
                       1  REORDERING OF EQUATIONS TO MINIMIZE WAVEFRONT
                       0  ADDITIONAL RESIDUAL EVALUATIONS FOR LINE SEARCHES
                       0  ADDITIONAL OPERATOR EVALUATIONS FOR LINE SEARCHES
                       0  WARNING MESSAGES DURING USER INPUT PROCESSING
                       0  WARNING MESSAGES DURING ANALYSIS
                       0  ANALYSIS WARNINGS ARE NUMERICAL PROBLEM MESSAGES
                       0  ANALYSIS WARNINGS ARE NEGATIVE EIGENVALUE MESSAGES
                       0  ERROR MESSAGES



     JOB TIME SUMMARY
       USER TIME (SEC)      =   31.500    
       SYSTEM TIME (SEC)    =   16.500    
       TOTAL CPU TIME (SEC) =   48.000    
       WALLCLOCK TIME (SEC) =        213
