1

   Abaqus 3DEXPERIENCE R2018x                                  Date 22-Feb-2022   Time 12:42:53
   For use by INDIAN INSTITUTE OF TECHNOLOGY BOMBAY under license from Dassault Systemes or its subsidiary.



                         The Abaqus Software is a product of:

                           Dassault Systemes SIMULIA Corp.
                           1301 Atwood Avenue, Suite 101W
                              Johnston, RI 02919, USA
 


                   The Abaqus Software is available only under license
                   from Dassault Systemes or its subsidiary and may be
                   used or reproduced only in accordance with the terms
                   of such license.
 
                          On machine LAPTOP-BRO9FT16 
                          you are authorized to run
                          Abaqus/Standard until 15-Aug-2022

                          Your site id is: 200000000020602 


 
                    For assistance or any other information you may
                    obtain contact information for your local office
                    from the world wide web at:

                      http://www.3ds.com/products/simulia/locations/

 
                * * * * * * * * * * * * * * * * * * * * * * * * * * * * * * 
                *                                                         * 
                *                   *****************                     * 
                *                   *  N O T I C E  *                     * 
                *                   *****************                     * 
                *                                                         * 
                *                                                         * 
                *               Abaqus 3DEXPERIENCE R2018x                * 
                *                                                         * 
                *          BUILD ID: 2017_11_07-22.51.41 127140           * 
                *                                                         * 
                *                                                         * 
                *  Please make sure you are using                         * 
                *  release 3DEXPERIENCE R2018x manuals                    * 
                *  plus the notes accompanying this release.              * 
                *                                                         * 
                *                                                         * 
                *                                                         * 
                *                                                         * 
                *                                                         * 
                *   This program may not be used for commercial purposes  * 
                *           without payment of a commercial fee.          * 
                *                                                         * 
                * * * * * * * * * * * * * * * * * * * * * * * * * * * * * * 


 



     PROCESSING PART, INSTANCE, AND ASSEMBLY INFORMATION
   *******************************************************


     END PROCESSING PART, INSTANCE, AND ASSEMBLY INFORMATION
   ***********************************************************




     OPTIONS BEING PROCESSED
   ***************************


  *Heading
  *Node
  *Element, type=CPE4
  *Nset, nset=ASSEMBLY_PART-1-1_SET-1
  *Elset, elset=ASSEMBLY_PART-1-1_SET-1
  *Nset, nset=ASSEMBLY_BC1_NODES
  *Nset, nset=ASSEMBLY_BC2_NODES
  *Nset, nset=ASSEMBLY_PLATE_NODESALONGXAXIS, unsorted
  *Nset, nset=ASSEMBLY_PLATE_NODESALONGYAXIS, unsorted
  *Elset, elset=ASSEMBLY_BC1_NODES
  *Elset, elset=ASSEMBLY_BC2_NODES
  *Elset, elset=ASSEMBLY_PLATE_NODESALONGXAXIS
  *Elset, elset=ASSEMBLY_PLATE_NODESALONGYAXIS
  *Elset, elset=ASSEMBLY__SURF-1_S1
  *Elset, elset=ASSEMBLY__SURF-1_S2
  *material, name=MATERIAL-1
  *elastic
  *solidsection, elset=ASSEMBLY_PART-1-1_SET-1, material=MATERIAL-1
  *solidsection, elset=ASSEMBLY_PART-1-1_SET-1, material=MATERIAL-1
  *surface, type=ELEMENT, name=ASSEMBLY_SURF-1
  *surface, type=ELEMENT, name=ASSEMBLY_SURF-1
  *boundary
  *boundary
  *boundary
  *boundary
  *surface, type=ELEMENT, name=ASSEMBLY_SURF-1
  *output, field, variable=PRESELECT
  *output, history, variable=PRESELECT
  *output, field, variable=PRESELECT
  *output, history, variable=PRESELECT
  *output, field, variable=PRESELECT
  *output, history, variable=PRESELECT
  *Step, name=Step-1, nlgeom=NO
  *output, field, variable=PRESELECT
  *output, history, variable=PRESELECT
  *Step, name=Step-2
  *Step, name=Step-1, nlgeom=NO
  *Step, name=Step-2
  *Step, name=Step-1, nlgeom=NO
  *static
  *boundary
  *boundary
  *dsload
  *output, field, variable=PRESELECT
  *output, history, variable=PRESELECT
  *nodeprint
  *elprint, elset=ASSEMBLY_PLATE_NODESALONGXAXIS, position=NODES
  *elprint, elset=ASSEMBLY_PLATE_NODESALONGYAXIS, position=NODES
  *endstep
  *Step, name=Step-2
  *matrixgenerate, stiffness, load
  *matrixoutput, stiffness, load, format=MATRIXINPUT
  *dsload
  *endstep
  *Step, name=Step-1, nlgeom=NO
  *static
  *boundary
  *boundary
  *endstep
  *Step, name=Step-2
  *endstep

     - (RAMP) OR (STEP) - INDICATE USE OF DEFAULT AMPLITUDES ASSOCIATED WITH THE STEP

     - (RAMP) OR (STEP) - INDICATE USE OF DEFAULT AMPLITUDES ASSOCIATED WITH THE STEP


                              E L E M E N T,   N O D E,   A N D   S U R F A C E   M A P S


**NOTE: This section may not include complete information about
        members of sets and surfaces. Use *PREPRINT, MODEL=YES 
        in order to get the set and surface members printed    
        under the following sections:                          
            - E L E M E N T   S E T S                          
            - N O D E   S E T S                                
            - S U R F A C E   D E F I N I T I O N S .          


Assembly name: ASSEMBLY
Number of instances: 1

ASSEMBLY LEVEL
  node sets:
    BC1_NODES:
      instance name: PART-1-1
      number of nodes: 19
      nodes: 
        7 8 9 34 35 36 37 38 39 40 41 42 43 44 45 46 47 48 49

    BC2_NODES:
      instance name: PART-1-1
      number of nodes: 11
      nodes: 
        2 3 5 14 15 16 17 18 19 20 21

    PLATE_NODESALONGXAXIS:
      type: UNSORTED
      number of nodes: 19
      nodes: 
        7 8 34 35 36 37 38 39 40 41 42 43 44 45 46 47 48 49 9

    PLATE_NODESALONGYAXIS:
      type: UNSORTED
      number of nodes: 11
      nodes: 
        5 3 21 20 19 18 17 16 15 14 2

  element sets:
    BC1_NODES:
      instance name: PART-1-1
      number of elements: 18
      elements: 
        31 32 33 34 35 36 37 38 39 40 41 42 43 44 45 46 47 48

    BC2_NODES:
      instance name: PART-1-1
      number of elements: 10
      elements: 
        3 6 9 12 15 18 21 24 27 28

    PLATE_NODESALONGXAXIS:
      instance name: PART-1-1
      number of elements: 18
      elements: 
        31 32 33 34 35 36 37 38 39 40 41 42 43 44 45 46 47 48

    PLATE_NODESALONGYAXIS:
      instance name: PART-1-1
      number of elements: 10
      elements: 
        3 6 9 12 15 18 21 24 27 28



  Surfaces:
    SURF-1:
      type: element based
      instance name: PART-1-1
        face id:  S2
        number of elements: 1
        elements:
          48
        face id:  S1
        number of elements: 9
        elements:
          49 50 51 52 53 54 55 56 57

INSTANCE LEVEL
  node sets:
    Instance name: PART-1-1
      node set name: SET-1
        number of nodes: 233
        nodes: 
          1 2 3 4 5 6 7 8 9 10 11 12 13 14 15 16 17 18 19 20 21 22 23 24
          25 26 27 28 29 30 31 32 33 34 35 36 37 38 39 40 41 42 43 44 45
          46 47 48 49 50 51 52 53 54 55 56 57 58 59 60 61 62 63 64 65 66
          67 68 69 70 71 72 73 74 75 76 77 78 79 80 81 82 83 84 85 86 87
          88 89 90 91 92 93 94 95 96 97 98 99 100 101 102 103 104 105
          106 107 108 109 110 111 112 113 114 115 116 117 118 119 120
          121 122 123 124 125 126 127 128 129 130 131 132 133 134 135
          136 137 138 139 140 141 142 143 144 145 146 147 148 149 150
          151 152 153 154 155 156 157 158 159 160 161 162 163 164 165
          166 167 168 169 170 171 172 173 174 175 176 177 178 179 180
          181 182 183 184 185 186 187 188 189 190 191 192 193 194 195
          196 197 198 199 200 201 202 203 204 205 206 207 208 209 210
          211 212 213 214 215 216 217 218 219 220 221 222 223 224 225
          226 227 228 229 230 231 232 233

  element sets:
    Instance name: PART-1-1
      element set name: SET-1
        number of elements: 201
        elements: 
          1 2 3 4 5 6 7 8 9 10 11 12 13 14 15 16 17 18 19 20 21 22 23 24
          25 26 27 28 29 30 31 32 33 34 35 36 37 38 39 40 41 42 43 44 45
          46 47 48 49 50 51 52 53 54 55 56 57 58 59 60 61 62 63 64 65 66
          67 68 69 70 71 72 73 74 75 76 77 78 79 80 81 82 83 84 85 86 87
          88 89 90 91 92 93 94 95 96 97 98 99 100 101 102 103 104 105
          106 107 108 109 110 111 112 113 114 115 116 117 118 119 120
          121 122 123 124 125 126 127 128 129 130 131 132 133 134 135
          136 137 138 139 140 141 142 143 144 145 146 147 148 149 150
          151 152 153 154 155 156 157 158 159 160 161 162 163 164 165
          166 167 168 169 170 171 172 173 174 175 176 177 178 179 180
          181 182 183 184 185 186 187 188 189 190 191 192 193 194 195
          196 197 198 199 200 201

  Surfaces:

GLOBAL TO LOCAL NODE AND ELEMENT MAPS
  Global     Local      
  node       node       
  number     number     
                        Instance name                                   
   1          1         PART-1-1                                        
   2          2         PART-1-1                                        
   3          3         PART-1-1                                        
   4          4         PART-1-1                                        
   5          5         PART-1-1                                        
   6          6         PART-1-1                                        
   7          7         PART-1-1                                        
   8          8         PART-1-1                                        
   9          9         PART-1-1                                        
   10         10        PART-1-1                                        
   11         11        PART-1-1                                        
   12         12        PART-1-1                                        
   13         13        PART-1-1                                        
   14         14        PART-1-1                                        
   15         15        PART-1-1                                        
   16         16        PART-1-1                                        
   17         17        PART-1-1                                        
   18         18        PART-1-1                                        
   19         19        PART-1-1                                        
   20         20        PART-1-1                                        
   21         21        PART-1-1                                        
   22         22        PART-1-1                                        
   23         23        PART-1-1                                        
   24         24        PART-1-1                                        
   25         25        PART-1-1                                        
   26         26        PART-1-1                                        
   27         27        PART-1-1                                        
   28         28        PART-1-1                                        
   29         29        PART-1-1                                        
   30         30        PART-1-1                                        
   31         31        PART-1-1                                        
   32         32        PART-1-1                                        
   33         33        PART-1-1                                        
   34         34        PART-1-1                                        
   35         35        PART-1-1                                        
   36         36        PART-1-1                                        
   37         37        PART-1-1                                        
   38         38        PART-1-1                                        
   39         39        PART-1-1                                        
   40         40        PART-1-1                                        
   41         41        PART-1-1                                        
   42         42        PART-1-1                                        
   43         43        PART-1-1                                        
   44         44        PART-1-1                                        
   45         45        PART-1-1                                        
   46         46        PART-1-1                                        
   47         47        PART-1-1                                        
   48         48        PART-1-1                                        
   49         49        PART-1-1                                        
   50         50        PART-1-1                                        
   51         51        PART-1-1                                        
   52         52        PART-1-1                                        
   53         53        PART-1-1                                        
   54         54        PART-1-1                                        
   55         55        PART-1-1                                        
   56         56        PART-1-1                                        
   57         57        PART-1-1                                        
   58         58        PART-1-1                                        
   59         59        PART-1-1                                        
   60         60        PART-1-1                                        
   61         61        PART-1-1                                        
   62         62        PART-1-1                                        
   63         63        PART-1-1                                        
   64         64        PART-1-1                                        
   65         65        PART-1-1                                        
   66         66        PART-1-1                                        
   67         67        PART-1-1                                        
   68         68        PART-1-1                                        
   69         69        PART-1-1                                        
   70         70        PART-1-1                                        
   71         71        PART-1-1                                        
   72         72        PART-1-1                                        
   73         73        PART-1-1                                        
   74         74        PART-1-1                                        
   75         75        PART-1-1                                        
   76         76        PART-1-1                                        
   77         77        PART-1-1                                        
   78         78        PART-1-1                                        
   79         79        PART-1-1                                        
   80         80        PART-1-1                                        
   81         81        PART-1-1                                        
   82         82        PART-1-1                                        
   83         83        PART-1-1                                        
   84         84        PART-1-1                                        
   85         85        PART-1-1                                        
   86         86        PART-1-1                                        
   87         87        PART-1-1                                        
   88         88        PART-1-1                                        
   89         89        PART-1-1                                        
   90         90        PART-1-1                                        
   91         91        PART-1-1                                        
   92         92        PART-1-1                                        
   93         93        PART-1-1                                        
   94         94        PART-1-1                                        
   95         95        PART-1-1                                        
   96         96        PART-1-1                                        
   97         97        PART-1-1                                        
   98         98        PART-1-1                                        
   99         99        PART-1-1                                        
   100        100       PART-1-1                                        
   101        101       PART-1-1                                        
   102        102       PART-1-1                                        
   103        103       PART-1-1                                        
   104        104       PART-1-1                                        
   105        105       PART-1-1                                        
   106        106       PART-1-1                                        
   107        107       PART-1-1                                        
   108        108       PART-1-1                                        
   109        109       PART-1-1                                        
   110        110       PART-1-1                                        
   111        111       PART-1-1                                        
   112        112       PART-1-1                                        
   113        113       PART-1-1                                        
   114        114       PART-1-1                                        
   115        115       PART-1-1                                        
   116        116       PART-1-1                                        
   117        117       PART-1-1                                        
   118        118       PART-1-1                                        
   119        119       PART-1-1                                        
   120        120       PART-1-1                                        
   121        121       PART-1-1                                        
   122        122       PART-1-1                                        
   123        123       PART-1-1                                        
   124        124       PART-1-1                                        
   125        125       PART-1-1                                        
   126        126       PART-1-1                                        
   127        127       PART-1-1                                        
   128        128       PART-1-1                                        
   129        129       PART-1-1                                        
   130        130       PART-1-1                                        
   131        131       PART-1-1                                        
   132        132       PART-1-1                                        
   133        133       PART-1-1                                        
   134        134       PART-1-1                                        
   135        135       PART-1-1                                        
   136        136       PART-1-1                                        
   137        137       PART-1-1                                        
   138        138       PART-1-1                                        
   139        139       PART-1-1                                        
   140        140       PART-1-1                                        
   141        141       PART-1-1                                        
   142        142       PART-1-1                                        
   143        143       PART-1-1                                        
   144        144       PART-1-1                                        
   145        145       PART-1-1                                        
   146        146       PART-1-1                                        
   147        147       PART-1-1                                        
   148        148       PART-1-1                                        
   149        149       PART-1-1                                        
   150        150       PART-1-1                                        
   151        151       PART-1-1                                        
   152        152       PART-1-1                                        
   153        153       PART-1-1                                        
   154        154       PART-1-1                                        
   155        155       PART-1-1                                        
   156        156       PART-1-1                                        
   157        157       PART-1-1                                        
   158        158       PART-1-1                                        
   159        159       PART-1-1                                        
   160        160       PART-1-1                                        
   161        161       PART-1-1                                        
   162        162       PART-1-1                                        
   163        163       PART-1-1                                        
   164        164       PART-1-1                                        
   165        165       PART-1-1                                        
   166        166       PART-1-1                                        
   167        167       PART-1-1                                        
   168        168       PART-1-1                                        
   169        169       PART-1-1                                        
   170        170       PART-1-1                                        
   171        171       PART-1-1                                        
   172        172       PART-1-1                                        
   173        173       PART-1-1                                        
   174        174       PART-1-1                                        
   175        175       PART-1-1                                        
   176        176       PART-1-1                                        
   177        177       PART-1-1                                        
   178        178       PART-1-1                                        
   179        179       PART-1-1                                        
   180        180       PART-1-1                                        
   181        181       PART-1-1                                        
   182        182       PART-1-1                                        
   183        183       PART-1-1                                        
   184        184       PART-1-1                                        
   185        185       PART-1-1                                        
   186        186       PART-1-1                                        
   187        187       PART-1-1                                        
   188        188       PART-1-1                                        
   189        189       PART-1-1                                        
   190        190       PART-1-1                                        
   191        191       PART-1-1                                        
   192        192       PART-1-1                                        
   193        193       PART-1-1                                        
   194        194       PART-1-1                                        
   195        195       PART-1-1                                        
   196        196       PART-1-1                                        
   197        197       PART-1-1                                        
   198        198       PART-1-1                                        
   199        199       PART-1-1                                        
   200        200       PART-1-1                                        
   201        201       PART-1-1                                        
   202        202       PART-1-1                                        
   203        203       PART-1-1                                        
   204        204       PART-1-1                                        
   205        205       PART-1-1                                        
   206        206       PART-1-1                                        
   207        207       PART-1-1                                        
   208        208       PART-1-1                                        
   209        209       PART-1-1                                        
   210        210       PART-1-1                                        
   211        211       PART-1-1                                        
   212        212       PART-1-1                                        
   213        213       PART-1-1                                        
   214        214       PART-1-1                                        
   215        215       PART-1-1                                        
   216        216       PART-1-1                                        
   217        217       PART-1-1                                        
   218        218       PART-1-1                                        
   219        219       PART-1-1                                        
   220        220       PART-1-1                                        
   221        221       PART-1-1                                        
   222        222       PART-1-1                                        
   223        223       PART-1-1                                        
   224        224       PART-1-1                                        
   225        225       PART-1-1                                        
   226        226       PART-1-1                                        
   227        227       PART-1-1                                        
   228        228       PART-1-1                                        
   229        229       PART-1-1                                        
   230        230       PART-1-1                                        
   231        231       PART-1-1                                        
   232        232       PART-1-1                                        
   233        233       PART-1-1                                        

  Global     Local      
  element    element    
  number     number     
                        Instance name                                   
   1          1         PART-1-1                                        
   2          2         PART-1-1                                        
   3          3         PART-1-1                                        
   4          4         PART-1-1                                        
   5          5         PART-1-1                                        
   6          6         PART-1-1                                        
   7          7         PART-1-1                                        
   8          8         PART-1-1                                        
   9          9         PART-1-1                                        
   10         10        PART-1-1                                        
   11         11        PART-1-1                                        
   12         12        PART-1-1                                        
   13         13        PART-1-1                                        
   14         14        PART-1-1                                        
   15         15        PART-1-1                                        
   16         16        PART-1-1                                        
   17         17        PART-1-1                                        
   18         18        PART-1-1                                        
   19         19        PART-1-1                                        
   20         20        PART-1-1                                        
   21         21        PART-1-1                                        
   22         22        PART-1-1                                        
   23         23        PART-1-1                                        
   24         24        PART-1-1                                        
   25         25        PART-1-1                                        
   26         26        PART-1-1                                        
   27         27        PART-1-1                                        
   28         28        PART-1-1                                        
   29         29        PART-1-1                                        
   30         30        PART-1-1                                        
   31         31        PART-1-1                                        
   32         32        PART-1-1                                        
   33         33        PART-1-1                                        
   34         34        PART-1-1                                        
   35         35        PART-1-1                                        
   36         36        PART-1-1                                        
   37         37        PART-1-1                                        
   38         38        PART-1-1                                        
   39         39        PART-1-1                                        
   40         40        PART-1-1                                        
   41         41        PART-1-1                                        
   42         42        PART-1-1                                        
   43         43        PART-1-1                                        
   44         44        PART-1-1                                        
   45         45        PART-1-1                                        
   46         46        PART-1-1                                        
   47         47        PART-1-1                                        
   48         48        PART-1-1                                        
   49         49        PART-1-1                                        
   50         50        PART-1-1                                        
   51         51        PART-1-1                                        
   52         52        PART-1-1                                        
   53         53        PART-1-1                                        
   54         54        PART-1-1                                        
   55         55        PART-1-1                                        
   56         56        PART-1-1                                        
   57         57        PART-1-1                                        
   58         58        PART-1-1                                        
   59         59        PART-1-1                                        
   60         60        PART-1-1                                        
   61         61        PART-1-1                                        
   62         62        PART-1-1                                        
   63         63        PART-1-1                                        
   64         64        PART-1-1                                        
   65         65        PART-1-1                                        
   66         66        PART-1-1                                        
   67         67        PART-1-1                                        
   68         68        PART-1-1                                        
   69         69        PART-1-1                                        
   70         70        PART-1-1                                        
   71         71        PART-1-1                                        
   72         72        PART-1-1                                        
   73         73        PART-1-1                                        
   74         74        PART-1-1                                        
   75         75        PART-1-1                                        
   76         76        PART-1-1                                        
   77         77        PART-1-1                                        
   78         78        PART-1-1                                        
   79         79        PART-1-1                                        
   80         80        PART-1-1                                        
   81         81        PART-1-1                                        
   82         82        PART-1-1                                        
   83         83        PART-1-1                                        
   84         84        PART-1-1                                        
   85         85        PART-1-1                                        
   86         86        PART-1-1                                        
   87         87        PART-1-1                                        
   88         88        PART-1-1                                        
   89         89        PART-1-1                                        
   90         90        PART-1-1                                        
   91         91        PART-1-1                                        
   92         92        PART-1-1                                        
   93         93        PART-1-1                                        
   94         94        PART-1-1                                        
   95         95        PART-1-1                                        
   96         96        PART-1-1                                        
   97         97        PART-1-1                                        
   98         98        PART-1-1                                        
   99         99        PART-1-1                                        
   100        100       PART-1-1                                        
   101        101       PART-1-1                                        
   102        102       PART-1-1                                        
   103        103       PART-1-1                                        
   104        104       PART-1-1                                        
   105        105       PART-1-1                                        
   106        106       PART-1-1                                        
   107        107       PART-1-1                                        
   108        108       PART-1-1                                        
   109        109       PART-1-1                                        
   110        110       PART-1-1                                        
   111        111       PART-1-1                                        
   112        112       PART-1-1                                        
   113        113       PART-1-1                                        
   114        114       PART-1-1                                        
   115        115       PART-1-1                                        
   116        116       PART-1-1                                        
   117        117       PART-1-1                                        
   118        118       PART-1-1                                        
   119        119       PART-1-1                                        
   120        120       PART-1-1                                        
   121        121       PART-1-1                                        
   122        122       PART-1-1                                        
   123        123       PART-1-1                                        
   124        124       PART-1-1                                        
   125        125       PART-1-1                                        
   126        126       PART-1-1                                        
   127        127       PART-1-1                                        
   128        128       PART-1-1                                        
   129        129       PART-1-1                                        
   130        130       PART-1-1                                        
   131        131       PART-1-1                                        
   132        132       PART-1-1                                        
   133        133       PART-1-1                                        
   134        134       PART-1-1                                        
   135        135       PART-1-1                                        
   136        136       PART-1-1                                        
   137        137       PART-1-1                                        
   138        138       PART-1-1                                        
   139        139       PART-1-1                                        
   140        140       PART-1-1                                        
   141        141       PART-1-1                                        
   142        142       PART-1-1                                        
   143        143       PART-1-1                                        
   144        144       PART-1-1                                        
   145        145       PART-1-1                                        
   146        146       PART-1-1                                        
   147        147       PART-1-1                                        
   148        148       PART-1-1                                        
   149        149       PART-1-1                                        
   150        150       PART-1-1                                        
   151        151       PART-1-1                                        
   152        152       PART-1-1                                        
   153        153       PART-1-1                                        
   154        154       PART-1-1                                        
   155        155       PART-1-1                                        
   156        156       PART-1-1                                        
   157        157       PART-1-1                                        
   158        158       PART-1-1                                        
   159        159       PART-1-1                                        
   160        160       PART-1-1                                        
   161        161       PART-1-1                                        
   162        162       PART-1-1                                        
   163        163       PART-1-1                                        
   164        164       PART-1-1                                        
   165        165       PART-1-1                                        
   166        166       PART-1-1                                        
   167        167       PART-1-1                                        
   168        168       PART-1-1                                        
   169        169       PART-1-1                                        
   170        170       PART-1-1                                        
   171        171       PART-1-1                                        
   172        172       PART-1-1                                        
   173        173       PART-1-1                                        
   174        174       PART-1-1                                        
   175        175       PART-1-1                                        
   176        176       PART-1-1                                        
   177        177       PART-1-1                                        
   178        178       PART-1-1                                        
   179        179       PART-1-1                                        
   180        180       PART-1-1                                        
   181        181       PART-1-1                                        
   182        182       PART-1-1                                        
   183        183       PART-1-1                                        
   184        184       PART-1-1                                        
   185        185       PART-1-1                                        
   186        186       PART-1-1                                        
   187        187       PART-1-1                                        
   188        188       PART-1-1                                        
   189        189       PART-1-1                                        
   190        190       PART-1-1                                        
   191        191       PART-1-1                                        
   192        192       PART-1-1                                        
   193        193       PART-1-1                                        
   194        194       PART-1-1                                        
   195        195       PART-1-1                                        
   196        196       PART-1-1                                        
   197        197       PART-1-1                                        
   198        198       PART-1-1                                        
   199        199       PART-1-1                                        
   200        200       PART-1-1                                        
   201        201       PART-1-1                                        

LOCAL TO GLOBAL NODE AND ELEMENT MAPS
                                                  Local      Global     
                                                  node       node       
                                                  number     number
  Instance name
  PART-1-1                                         1          1         
  PART-1-1                                         2          2         
  PART-1-1                                         3          3         
  PART-1-1                                         4          4         
  PART-1-1                                         5          5         
  PART-1-1                                         6          6         
  PART-1-1                                         7          7         
  PART-1-1                                         8          8         
  PART-1-1                                         9          9         
  PART-1-1                                         10         10        
  PART-1-1                                         11         11        
  PART-1-1                                         12         12        
  PART-1-1                                         13         13        
  PART-1-1                                         14         14        
  PART-1-1                                         15         15        
  PART-1-1                                         16         16        
  PART-1-1                                         17         17        
  PART-1-1                                         18         18        
  PART-1-1                                         19         19        
  PART-1-1                                         20         20        
  PART-1-1                                         21         21        
  PART-1-1                                         22         22        
  PART-1-1                                         23         23        
  PART-1-1                                         24         24        
  PART-1-1                                         25         25        
  PART-1-1                                         26         26        
  PART-1-1                                         27         27        
  PART-1-1                                         28         28        
  PART-1-1                                         29         29        
  PART-1-1                                         30         30        
  PART-1-1                                         31         31        
  PART-1-1                                         32         32        
  PART-1-1                                         33         33        
  PART-1-1                                         34         34        
  PART-1-1                                         35         35        
  PART-1-1                                         36         36        
  PART-1-1                                         37         37        
  PART-1-1                                         38         38        
  PART-1-1                                         39         39        
  PART-1-1                                         40         40        
  PART-1-1                                         41         41        
  PART-1-1                                         42         42        
  PART-1-1                                         43         43        
  PART-1-1                                         44         44        
  PART-1-1                                         45         45        
  PART-1-1                                         46         46        
  PART-1-1                                         47         47        
  PART-1-1                                         48         48        
  PART-1-1                                         49         49        
  PART-1-1                                         50         50        
  PART-1-1                                         51         51        
  PART-1-1                                         52         52        
  PART-1-1                                         53         53        
  PART-1-1                                         54         54        
  PART-1-1                                         55         55        
  PART-1-1                                         56         56        
  PART-1-1                                         57         57        
  PART-1-1                                         58         58        
  PART-1-1                                         59         59        
  PART-1-1                                         60         60        
  PART-1-1                                         61         61        
  PART-1-1                                         62         62        
  PART-1-1                                         63         63        
  PART-1-1                                         64         64        
  PART-1-1                                         65         65        
  PART-1-1                                         66         66        
  PART-1-1                                         67         67        
  PART-1-1                                         68         68        
  PART-1-1                                         69         69        
  PART-1-1                                         70         70        
  PART-1-1                                         71         71        
  PART-1-1                                         72         72        
  PART-1-1                                         73         73        
  PART-1-1                                         74         74        
  PART-1-1                                         75         75        
  PART-1-1                                         76         76        
  PART-1-1                                         77         77        
  PART-1-1                                         78         78        
  PART-1-1                                         79         79        
  PART-1-1                                         80         80        
  PART-1-1                                         81         81        
  PART-1-1                                         82         82        
  PART-1-1                                         83         83        
  PART-1-1                                         84         84        
  PART-1-1                                         85         85        
  PART-1-1                                         86         86        
  PART-1-1                                         87         87        
  PART-1-1                                         88         88        
  PART-1-1                                         89         89        
  PART-1-1                                         90         90        
  PART-1-1                                         91         91        
  PART-1-1                                         92         92        
  PART-1-1                                         93         93        
  PART-1-1                                         94         94        
  PART-1-1                                         95         95        
  PART-1-1                                         96         96        
  PART-1-1                                         97         97        
  PART-1-1                                         98         98        
  PART-1-1                                         99         99        
  PART-1-1                                         100        100       
  PART-1-1                                         101        101       
  PART-1-1                                         102        102       
  PART-1-1                                         103        103       
  PART-1-1                                         104        104       
  PART-1-1                                         105        105       
  PART-1-1                                         106        106       
  PART-1-1                                         107        107       
  PART-1-1                                         108        108       
  PART-1-1                                         109        109       
  PART-1-1                                         110        110       
  PART-1-1                                         111        111       
  PART-1-1                                         112        112       
  PART-1-1                                         113        113       
  PART-1-1                                         114        114       
  PART-1-1                                         115        115       
  PART-1-1                                         116        116       
  PART-1-1                                         117        117       
  PART-1-1                                         118        118       
  PART-1-1                                         119        119       
  PART-1-1                                         120        120       
  PART-1-1                                         121        121       
  PART-1-1                                         122        122       
  PART-1-1                                         123        123       
  PART-1-1                                         124        124       
  PART-1-1                                         125        125       
  PART-1-1                                         126        126       
  PART-1-1                                         127        127       
  PART-1-1                                         128        128       
  PART-1-1                                         129        129       
  PART-1-1                                         130        130       
  PART-1-1                                         131        131       
  PART-1-1                                         132        132       
  PART-1-1                                         133        133       
  PART-1-1                                         134        134       
  PART-1-1                                         135        135       
  PART-1-1                                         136        136       
  PART-1-1                                         137        137       
  PART-1-1                                         138        138       
  PART-1-1                                         139        139       
  PART-1-1                                         140        140       
  PART-1-1                                         141        141       
  PART-1-1                                         142        142       
  PART-1-1                                         143        143       
  PART-1-1                                         144        144       
  PART-1-1                                         145        145       
  PART-1-1                                         146        146       
  PART-1-1                                         147        147       
  PART-1-1                                         148        148       
  PART-1-1                                         149        149       
  PART-1-1                                         150        150       
  PART-1-1                                         151        151       
  PART-1-1                                         152        152       
  PART-1-1                                         153        153       
  PART-1-1                                         154        154       
  PART-1-1                                         155        155       
  PART-1-1                                         156        156       
  PART-1-1                                         157        157       
  PART-1-1                                         158        158       
  PART-1-1                                         159        159       
  PART-1-1                                         160        160       
  PART-1-1                                         161        161       
  PART-1-1                                         162        162       
  PART-1-1                                         163        163       
  PART-1-1                                         164        164       
  PART-1-1                                         165        165       
  PART-1-1                                         166        166       
  PART-1-1                                         167        167       
  PART-1-1                                         168        168       
  PART-1-1                                         169        169       
  PART-1-1                                         170        170       
  PART-1-1                                         171        171       
  PART-1-1                                         172        172       
  PART-1-1                                         173        173       
  PART-1-1                                         174        174       
  PART-1-1                                         175        175       
  PART-1-1                                         176        176       
  PART-1-1                                         177        177       
  PART-1-1                                         178        178       
  PART-1-1                                         179        179       
  PART-1-1                                         180        180       
  PART-1-1                                         181        181       
  PART-1-1                                         182        182       
  PART-1-1                                         183        183       
  PART-1-1                                         184        184       
  PART-1-1                                         185        185       
  PART-1-1                                         186        186       
  PART-1-1                                         187        187       
  PART-1-1                                         188        188       
  PART-1-1                                         189        189       
  PART-1-1                                         190        190       
  PART-1-1                                         191        191       
  PART-1-1                                         192        192       
  PART-1-1                                         193        193       
  PART-1-1                                         194        194       
  PART-1-1                                         195        195       
  PART-1-1                                         196        196       
  PART-1-1                                         197        197       
  PART-1-1                                         198        198       
  PART-1-1                                         199        199       
  PART-1-1                                         200        200       
  PART-1-1                                         201        201       
  PART-1-1                                         202        202       
  PART-1-1                                         203        203       
  PART-1-1                                         204        204       
  PART-1-1                                         205        205       
  PART-1-1                                         206        206       
  PART-1-1                                         207        207       
  PART-1-1                                         208        208       
  PART-1-1                                         209        209       
  PART-1-1                                         210        210       
  PART-1-1                                         211        211       
  PART-1-1                                         212        212       
  PART-1-1                                         213        213       
  PART-1-1                                         214        214       
  PART-1-1                                         215        215       
  PART-1-1                                         216        216       
  PART-1-1                                         217        217       
  PART-1-1                                         218        218       
  PART-1-1                                         219        219       
  PART-1-1                                         220        220       
  PART-1-1                                         221        221       
  PART-1-1                                         222        222       
  PART-1-1                                         223        223       
  PART-1-1                                         224        224       
  PART-1-1                                         225        225       
  PART-1-1                                         226        226       
  PART-1-1                                         227        227       
  PART-1-1                                         228        228       
  PART-1-1                                         229        229       
  PART-1-1                                         230        230       
  PART-1-1                                         231        231       
  PART-1-1                                         232        232       
  PART-1-1                                         233        233       

                                                  Local      Global     
                                                  element    element    
                                                  number     number
  Instance name
  PART-1-1                                         1          1         
  PART-1-1                                         2          2         
  PART-1-1                                         3          3         
  PART-1-1                                         4          4         
  PART-1-1                                         5          5         
  PART-1-1                                         6          6         
  PART-1-1                                         7          7         
  PART-1-1                                         8          8         
  PART-1-1                                         9          9         
  PART-1-1                                         10         10        
  PART-1-1                                         11         11        
  PART-1-1                                         12         12        
  PART-1-1                                         13         13        
  PART-1-1                                         14         14        
  PART-1-1                                         15         15        
  PART-1-1                                         16         16        
  PART-1-1                                         17         17        
  PART-1-1                                         18         18        
  PART-1-1                                         19         19        
  PART-1-1                                         20         20        
  PART-1-1                                         21         21        
  PART-1-1                                         22         22        
  PART-1-1                                         23         23        
  PART-1-1                                         24         24        
  PART-1-1                                         25         25        
  PART-1-1                                         26         26        
  PART-1-1                                         27         27        
  PART-1-1                                         28         28        
  PART-1-1                                         29         29        
  PART-1-1                                         30         30        
  PART-1-1                                         31         31        
  PART-1-1                                         32         32        
  PART-1-1                                         33         33        
  PART-1-1                                         34         34        
  PART-1-1                                         35         35        
  PART-1-1                                         36         36        
  PART-1-1                                         37         37        
  PART-1-1                                         38         38        
  PART-1-1                                         39         39        
  PART-1-1                                         40         40        
  PART-1-1                                         41         41        
  PART-1-1                                         42         42        
  PART-1-1                                         43         43        
  PART-1-1                                         44         44        
  PART-1-1                                         45         45        
  PART-1-1                                         46         46        
  PART-1-1                                         47         47        
  PART-1-1                                         48         48        
  PART-1-1                                         49         49        
  PART-1-1                                         50         50        
  PART-1-1                                         51         51        
  PART-1-1                                         52         52        
  PART-1-1                                         53         53        
  PART-1-1                                         54         54        
  PART-1-1                                         55         55        
  PART-1-1                                         56         56        
  PART-1-1                                         57         57        
  PART-1-1                                         58         58        
  PART-1-1                                         59         59        
  PART-1-1                                         60         60        
  PART-1-1                                         61         61        
  PART-1-1                                         62         62        
  PART-1-1                                         63         63        
  PART-1-1                                         64         64        
  PART-1-1                                         65         65        
  PART-1-1                                         66         66        
  PART-1-1                                         67         67        
  PART-1-1                                         68         68        
  PART-1-1                                         69         69        
  PART-1-1                                         70         70        
  PART-1-1                                         71         71        
  PART-1-1                                         72         72        
  PART-1-1                                         73         73        
  PART-1-1                                         74         74        
  PART-1-1                                         75         75        
  PART-1-1                                         76         76        
  PART-1-1                                         77         77        
  PART-1-1                                         78         78        
  PART-1-1                                         79         79        
  PART-1-1                                         80         80        
  PART-1-1                                         81         81        
  PART-1-1                                         82         82        
  PART-1-1                                         83         83        
  PART-1-1                                         84         84        
  PART-1-1                                         85         85        
  PART-1-1                                         86         86        
  PART-1-1                                         87         87        
  PART-1-1                                         88         88        
  PART-1-1                                         89         89        
  PART-1-1                                         90         90        
  PART-1-1                                         91         91        
  PART-1-1                                         92         92        
  PART-1-1                                         93         93        
  PART-1-1                                         94         94        
  PART-1-1                                         95         95        
  PART-1-1                                         96         96        
  PART-1-1                                         97         97        
  PART-1-1                                         98         98        
  PART-1-1                                         99         99        
  PART-1-1                                         100        100       
  PART-1-1                                         101        101       
  PART-1-1                                         102        102       
  PART-1-1                                         103        103       
  PART-1-1                                         104        104       
  PART-1-1                                         105        105       
  PART-1-1                                         106        106       
  PART-1-1                                         107        107       
  PART-1-1                                         108        108       
  PART-1-1                                         109        109       
  PART-1-1                                         110        110       
  PART-1-1                                         111        111       
  PART-1-1                                         112        112       
  PART-1-1                                         113        113       
  PART-1-1                                         114        114       
  PART-1-1                                         115        115       
  PART-1-1                                         116        116       
  PART-1-1                                         117        117       
  PART-1-1                                         118        118       
  PART-1-1                                         119        119       
  PART-1-1                                         120        120       
  PART-1-1                                         121        121       
  PART-1-1                                         122        122       
  PART-1-1                                         123        123       
  PART-1-1                                         124        124       
  PART-1-1                                         125        125       
  PART-1-1                                         126        126       
  PART-1-1                                         127        127       
  PART-1-1                                         128        128       
  PART-1-1                                         129        129       
  PART-1-1                                         130        130       
  PART-1-1                                         131        131       
  PART-1-1                                         132        132       
  PART-1-1                                         133        133       
  PART-1-1                                         134        134       
  PART-1-1                                         135        135       
  PART-1-1                                         136        136       
  PART-1-1                                         137        137       
  PART-1-1                                         138        138       
  PART-1-1                                         139        139       
  PART-1-1                                         140        140       
  PART-1-1                                         141        141       
  PART-1-1                                         142        142       
  PART-1-1                                         143        143       
  PART-1-1                                         144        144       
  PART-1-1                                         145        145       
  PART-1-1                                         146        146       
  PART-1-1                                         147        147       
  PART-1-1                                         148        148       
  PART-1-1                                         149        149       
  PART-1-1                                         150        150       
  PART-1-1                                         151        151       
  PART-1-1                                         152        152       
  PART-1-1                                         153        153       
  PART-1-1                                         154        154       
  PART-1-1                                         155        155       
  PART-1-1                                         156        156       
  PART-1-1                                         157        157       
  PART-1-1                                         158        158       
  PART-1-1                                         159        159       
  PART-1-1                                         160        160       
  PART-1-1                                         161        161       
  PART-1-1                                         162        162       
  PART-1-1                                         163        163       
  PART-1-1                                         164        164       
  PART-1-1                                         165        165       
  PART-1-1                                         166        166       
  PART-1-1                                         167        167       
  PART-1-1                                         168        168       
  PART-1-1                                         169        169       
  PART-1-1                                         170        170       
  PART-1-1                                         171        171       
  PART-1-1                                         172        172       
  PART-1-1                                         173        173       
  PART-1-1                                         174        174       
  PART-1-1                                         175        175       
  PART-1-1                                         176        176       
  PART-1-1                                         177        177       
  PART-1-1                                         178        178       
  PART-1-1                                         179        179       
  PART-1-1                                         180        180       
  PART-1-1                                         181        181       
  PART-1-1                                         182        182       
  PART-1-1                                         183        183       
  PART-1-1                                         184        184       
  PART-1-1                                         185        185       
  PART-1-1                                         186        186       
  PART-1-1                                         187        187       
  PART-1-1                                         188        188       
  PART-1-1                                         189        189       
  PART-1-1                                         190        190       
  PART-1-1                                         191        191       
  PART-1-1                                         192        192       
  PART-1-1                                         193        193       
  PART-1-1                                         194        194       
  PART-1-1                                         195        195       
  PART-1-1                                         196        196       
  PART-1-1                                         197        197       
  PART-1-1                                         198        198       
  PART-1-1                                         199        199       
  PART-1-1                                         200        200       
  PART-1-1                                         201        201       




                            P R O B L E M   S I Z E


          NUMBER OF ELEMENTS IS                                   201
          NUMBER OF NODES IS                                      233
          NUMBER OF NODES DEFINED BY THE USER                     233
          TOTAL NUMBER OF VARIABLES IN THE MODEL                  466
          (DEGREES OF FREEDOM PLUS MAX NO. OF ANY LAGRANGE MULTIPLIER
           VARIABLES. INCLUDE *PRINT,SOLVE=YES TO GET THE ACTUAL NUMBER.)



                              END OF USER INPUT PROCESSING



     JOB TIME SUMMARY
       USER TIME (SEC)      =  0.10000    
       SYSTEM TIME (SEC)    =   0.0000    
       TOTAL CPU TIME (SEC) =  0.10000    
       WALLCLOCK TIME (SEC) =          0
1

   Abaqus 3DEXPERIENCE R2018x                                  Date 22-Feb-2022   Time 12:42:56
   For use by INDIAN INSTITUTE OF TECHNOLOGY BOMBAY under license from Dassault Systemes or its subsidiary.

                                                                                               STEP    1  INCREMENT    1
                                                                                          TIME COMPLETED IN THIS STEP   0.00    


                        S T E P       1     S T A T I C   A N A L Y S I S


                                                                                          

     AUTOMATIC TIME CONTROL WITH -
          A SUGGESTED INITIAL TIME INCREMENT OF                 1.00    
          AND A TOTAL TIME PERIOD OF                            1.00    
          THE MINIMUM TIME INCREMENT ALLOWED IS                1.000E-05
          THE MAXIMUM TIME INCREMENT ALLOWED IS                 1.00    

     LINEAR EQUATION SOLVER TYPE         DIRECT SPARSE
  
                   M E M O R Y   E S T I M A T E
  
 PROCESS      FLOATING PT       MINIMUM MEMORY        MEMORY TO
              OPERATIONS           REQUIRED          MINIMIZE I/O
             PER ITERATION           (MB)               (MB)
  
     1          3.60E+05               17                 24
  
 NOTE:
      (1) SINCE ABAQUS DOES NOT PRE-ALLOCATE MEMORY AND ONLY ALLOCATES MEMORY AS NEEDED DURING THE ANALYSIS,
          THE MEMORY REQUIREMENT PRINTED HERE CAN ONLY BE VIEWED AS A GENERAL GUIDELINE BASED ON THE BEST
          KNOWLEDGE AVAILABLE AT THE BEGINNING OF A STEP BEFORE THE SOLUTION PROCESS HAS BEGUN.
      (2) THE ESTIMATE IS NORMALLY UPDATED AT THE BEGINNING OF EVERY STEP. IT IS THE MAXIMUM VALUE OF THE
          ESTIMATE FROM THE CURRENT STEP TO THE LAST STEP OF THE ANALYSIS, WITH UNSYMMETRIC SOLUTION TAKEN
          INTO ACCOUNT IF APPLICABLE. 
      (3) SINCE THE ESTIMATE IS BASED ON THE ACTIVE DEGREES OF FREEDOM IN THE FIRST ITERATION OF THE 
          CURRENT STEP, THE MEMORY ESTIMATE MIGHT BE SIGNIFICANTLY DIFFERENT THAN ACTUAL USAGE FOR 
          PROBLEMS WITH SUBSTANTIAL CHANGES IN ACTIVE DEGREES OF FREEDOM BETWEEN STEPS (OR EVEN WITHIN
          THE SAME STEP). EXAMPLES ARE: PROBLEMS WITH SIGNIFICANT CONTACT CHANGES, PROBLEMS WITH MODEL
          CHANGE, PROBLEMS WITH BOTH STATIC STEP AND STEADY STATE DYNAMIC PROCEDURES WHERE ACOUSTIC 
          ELEMENTS WILL ONLY BE ACTIVATED IN THE STEADY STATE DYNAMIC STEPS.
      (4) FOR MULTI-PROCESS EXECUTION, THE ESTIMATED VALUE OF FLOATING POINT OPERATIONS FOR EACH PROCESS
          IS BASED ON AN INITIAL SCHEDULING OF OPERATIONS AND MIGHT NOT REFLECT THE ACTUAL FLOATING 
          POINT OPERATIONS COMPLETED ON EACH PROCESS. OPERATIONS ARE DYNAMICALLY BALANCED DURING EXECUTION, 
          SO THE ACTUAL BALANCE OF OPERATIONS BETWEEN PROCESSES IS EXPECTED TO BE BETTER THAN THE ESTIMATE
          PRINTED HERE.
      (5) THE UPPER LIMIT OF MEMORY THAT CAN BE ALLOCATED BY ABAQUS WILL IN GENERAL DEPEND ON THE VALUE OF
          THE "MEMORY" PARAMETER AND THE AMOUNT OF PHYSICAL MEMORY AVAILABLE ON THE MACHINE. PLEASE SEE
          THE "ABAQUS ANALYSIS USER'S MANUAL" FOR MORE DETAILS. THE ACTUAL USAGE OF MEMORY AND OF DISK
          SPACE FOR SCRATCH DATA WILL DEPEND ON THIS UPPER LIMIT AS WELL AS THE MEMORY REQUIRED TO MINIMIZE
          I/O. IF THE MEMORY UPPER LIMIT IS GREATER THAN THE MEMORY REQUIRED TO MINIMIZE I/O, THEN THE ACTUAL
          MEMORY USAGE WILL BE CLOSE TO THE ESTIMATED "MEMORY TO MINIMIZE I/O" VALUE, AND THE SCRATCH DISK
          USAGE WILL BE CLOSE-TO-ZERO; OTHERWISE, THE ACTUAL MEMORY USED WILL BE CLOSE TO THE PREVIOUSLY
          MENTIONED MEMORY LIMIT, AND THE SCRATCH DISK USAGE WILL BE ROUGHLY PROPORTIONAL TO THE DIFFERENCE
          BETWEEN THE ESTIMATED "MEMORY TO MINIMIZE I/O" AND THE MEMORY UPPER LIMIT. HOWEVER ACCURATE
          ESTIMATE OF THE SCRATCH DISK SPACE IS NOT POSSIBLE.
      (6) USING "*RESTART, WRITE" CAN GENERATE A LARGE AMOUNT OF DATA WRITTEN IN THE WORK DIRECTORY.


                                INCREMENT     1 SUMMARY


 TIME INCREMENT COMPLETED   1.00    ,  FRACTION OF STEP COMPLETED   1.00    
 STEP TIME COMPLETED        1.00    ,  TOTAL TIME COMPLETED         1.00    



                                                  E L E M E N T   O U T P U T





   THE FOLLOWING TABLE IS PRINTED AT THE NODES FOR ELEMENT TYPE CPE4 AND ELEMENT SET 
   ASSEMBLY_PLATE_NODESALONGXAXIS

    ELEMENT         ND   FOOT-   S11         S22         S33         S12         E11         E22         E33         E12         
                         NOTE 

          31          6         0.2196     -0.4578     -7.1461E-02  9.2749E-02  3.7833E-03 -5.0219E-03   0.000      2.4115E-03
          31          7         0.3309     -0.5691     -7.1461E-02 -0.2137      5.2307E-03 -6.4693E-03   0.000     -5.5565E-03
          31          8         7.6320E-02 -0.3145     -7.1461E-02 -0.2511      1.9211E-03 -3.1598E-03   0.000     -6.5295E-03
          31          4         2.6059E-03 -0.2408     -7.1461E-02 -6.0238E-02  9.6287E-04 -2.2015E-03   0.000     -1.5662E-03
          32          8         0.3734      3.5134E-02  0.1226     -0.2600      3.2610E-03 -1.1366E-03   0.000     -6.7605E-03
[...]
           9         95          1.047      2.6523E-02  0.3221      1.0450E-02  9.4260E-03 -3.8427E-03   0.000      2.7171E-04
          12         95          1.067      5.3482E-02  0.3361      1.2827E-02  9.4988E-03 -3.6736E-03   0.000      3.3349E-04
          12         16          1.064      5.6194E-02  0.3361      1.7890E-02  9.4635E-03 -3.6383E-03   0.000      4.6513E-04
          12         17          1.068      5.2221E-02  0.3361      2.0856E-02  9.5152E-03 -3.6900E-03   0.000      5.4225E-04
          12         97          1.070      4.9731E-02  0.3361      1.5580E-02  9.5475E-03 -3.7224E-03   0.000      4.0509E-04
          15         97          1.092      8.2536E-02  0.3523      1.6317E-02  9.6138E-03 -3.5071E-03   0.000      4.2424E-04
          15         17          1.087      8.7361E-02  0.3523      2.2487E-02  9.5511E-03 -3.4444E-03   0.000      5.8467E-04
          15         18          1.091      8.2974E-02  0.3523      2.7624E-02  9.6081E-03 -3.5014E-03   0.000      7.1822E-04
          15         99          1.096      7.8386E-02  0.3523      2.1098E-02  9.6678E-03 -3.5610E-03   0.000      5.4854E-04
          18         99          1.124      0.1212      0.3735      1.9330E-02  9.7539E-03 -3.2795E-03   0.000      5.0259E-04
          18         18          1.116      0.1295      0.3735      3.0454E-02  9.6461E-03 -3.1718E-03   0.000      7.9181E-04
          18         19          1.123      0.1220      0.3735      3.9757E-02  9.7437E-03 -3.2694E-03   0.000      1.0337E-03
          18        101          1.131      0.1141      0.3735      2.7943E-02  9.8466E-03 -3.3723E-03   0.000      7.2652E-04
          21        101          1.173      0.1753      0.4044      1.9729E-02  9.9884E-03 -2.9785E-03   0.000      5.1297E-04
          21         19          1.160      0.1884      0.4044      4.4255E-02  9.8176E-03 -2.8077E-03   0.000      1.1506E-03
          21         20          1.176      0.1716      0.4044      6.1325E-02  1.0036E-02 -3.0262E-03   0.000      1.5945E-03
          21        103          1.189      0.1592      0.4044      3.5371E-02  1.0198E-02 -3.1882E-03   0.000      9.1965E-04
          24        103          1.258      0.2588      0.4551      4.6481E-03  1.0439E-02 -2.5514E-03   0.000      1.2085E-04
          24         20          1.245      0.2717      0.4551      6.6732E-02  1.0272E-02 -2.3837E-03   0.000      1.7350E-03
          24         21          1.291      0.2256      0.4551      9.5053E-02  1.0871E-02 -2.9834E-03   0.000      2.4714E-03
          24        105          1.303      0.2137      0.4551      3.0104E-02  1.1026E-02 -3.1383E-03   0.000      7.8269E-04
          27        105          1.437      0.3860      0.5470     -7.5878E-02  1.1576E-02 -2.0938E-03   0.000     -1.9728E-03
          27         21          1.442      0.3817      0.5470      9.7121E-02  1.1631E-02 -2.1497E-03   0.000      2.5251E-03
          27          3          1.577      0.2465      0.5470      0.1460      1.3389E-02 -3.9070E-03   0.000      3.7955E-03
          27         22          1.579      0.2440      0.5470     -3.5538E-02  1.3421E-02 -3.9395E-03   0.000     -9.2398E-04
          28          3          2.092      0.4007      0.7479      9.5358E-02  1.7476E-02 -4.5130E-03   0.000      2.4793E-03
          28          5          2.576     -8.3239E-02  0.7479      3.6390E-02  2.3767E-02 -1.0804E-02   0.000      9.4613E-04
          28         32          2.372      0.1204      0.7479     -0.5579      2.1119E-02 -8.1565E-03   0.000     -1.4505E-02
          28         22          1.836      0.6572      0.7479     -0.4163      1.4141E-02 -1.1787E-03   0.000     -1.0824E-02

 MAXIMUM                  2.576      0.6572      0.7479      0.1460      2.3767E-02 -1.1787E-03   0.000      3.7955E-03            
 ELEMENT                        28          28          28          27          28          28           3          27             

 MINIMUM                 0.9683     -8.3239E-02  0.2938     -0.5579      8.7690E-03 -1.0804E-02   0.000     -1.4505E-02            
 ELEMENT                         3          28           3          28           3          28           3          28             
  
  
  
  
                                       N O D E   O U T P U T
  
  
  
  
   THE FOLLOWING TABLE IS PRINTED FOR ALL NODES
  
       NODE FOOT-  U1             U2           
            NOTE
  
         1      6.6660047E-03 -1.1470435E-02 
         2      0.0000000E+00 -1.2110498E-02 
         3      0.0000000E+00 -6.3209621E-03 
         4      1.2517032E-02 -6.4779439E-04 
         5      0.0000000E+00 -4.9163395E-03 
         6      1.2695557E-02 -1.7194033E-03 
         7      1.3861545E-02  0.0000000E+00 
         8      1.4698326E-02  0.0000000E+00 
         9      4.7840626E-02  0.0000000E+00 
        10      4.7829976E-02 -8.8645497E-04 
        11      4.7334563E-02 -9.3444640E-03 
        12      4.3822409E-03 -1.1800134E-02 
        13      2.1696433E-03 -1.2027453E-02 
        14      0.0000000E+00 -1.1357109E-02 
        15      0.0000000E+00 -1.0591626E-02 
        16      0.0000000E+00 -9.8370717E-03 
        17      0.0000000E+00 -9.1099716E-03 
        18      0.0000000E+00 -8.4249391E-03 
        19      0.0000000E+00 -7.7984118E-03 
        20      0.0000000E+00 -7.2494491E-03 
        21      0.0000000E+00 -6.7806017E-03 
        22      3.2175331E-03 -5.3451626E-03 
        23      7.7733464E-03 -2.9656768E-03 
        24      9.6748681E-03 -2.3211545E-03 
        25      8.2808027E-03 -3.9315029E-03 
        26      7.6207218E-03 -5.2997035E-03 
        27      7.3114897E-03 -6.4905925E-03 
        28      7.1617861E-03 -7.5713626E-03 
        29      7.0784663E-03 -8.5917263E-03 
        30      7.0029599E-03 -9.5764069E-03 
        31      6.8856878E-03 -1.0535344E-02 
        32      5.2924455E-03 -4.5501883E-03 
        33      9.7470462E-03 -3.3920794E-03 
        34      1.5249813E-02  0.0000000E+00 
        35      1.6542319E-02  0.0000000E+00 
        36      1.8154503E-02  0.0000000E+00 
        37      1.9954118E-02  0.0000000E+00 
        38      2.1869348E-02  0.0000000E+00 
        39      2.3864706E-02  0.0000000E+00 
        40      2.5917270E-02  0.0000000E+00 
        41      2.8013147E-02  0.0000000E+00 
        42      3.0143072E-02  0.0000000E+00 
        43      3.2300698E-02  0.0000000E+00 
        44      3.4481287E-02  0.0000000E+00 
        45      3.6681011E-02  0.0000000E+00 
        46      3.8896457E-02  0.0000000E+00 
        47      4.1124265E-02  0.0000000E+00 
        48      4.3360766E-02  0.0000000E+00 
        49      4.5601511E-02  0.0000000E+00 
        50      4.5568101E-02 -9.0267885E-04 
        51      4.3306727E-02 -9.1016990E-04 
        52      4.1050341E-02 -9.1158238E-04 
        53      3.8802755E-02 -9.0865563E-04 
        54      3.6567333E-02 -9.0252863E-04 
        55      3.4347225E-02 -8.9396382E-04 
        56      3.2145640E-02 -8.8345810E-04 
        57      2.9966096E-02 -8.7126556E-04 
        58      2.7812810E-02 -8.5731510E-04 
        59      2.5691314E-02 -8.4108498E-04 
        60      2.3609269E-02 -8.2123757E-04 
        61      2.1578246E-02 -7.9555838E-04 
        62      1.9615123E-02 -7.5954163E-04 
        63      1.7750297E-02 -7.0979776E-04 
        64      1.6008022E-02 -6.4410440E-04 
        65      1.4378322E-02 -5.9642760E-04 
        66      4.7799103E-02 -1.7778189E-03 
        67      4.7750733E-02 -2.6785347E-03 
        68      4.7689148E-02 -3.5921340E-03 
        69      4.7619797E-02 -4.5208465E-03 
        70      4.7548738E-02 -5.4652539E-03 
        71      4.7481863E-02 -6.4240126E-03 
        72      4.7423812E-02 -7.3936812E-03 
        73      4.7376117E-02 -8.3688586E-03 
        74      4.5060182E-02 -9.3843632E-03 
        75      4.2785431E-02 -9.4179923E-03 
        76      4.0505162E-02 -9.4405721E-03 
        77      3.8213316E-02 -9.4524491E-03 
        78      3.5904674E-02 -9.4567626E-03 
        79      3.3574670E-02 -9.4582524E-03 
        80      3.1219214E-02 -9.4630044E-03 
        81      2.8834735E-02 -9.4785041E-03 
        82      2.6418546E-02 -9.5137873E-03 
        83      2.3969594E-02 -9.5794291E-03 
        84      2.1489593E-02 -9.6871271E-03 
        85      1.8984530E-02 -9.8484293E-03 
        86      1.6466000E-02 -1.0072342E-02 
        87      1.3951903E-02 -1.0361540E-02 
        88      1.1465023E-02 -1.0708086E-02 
        89      9.0296458E-03 -1.1090107E-02 
        90      4.5510214E-03 -1.0929399E-02 
        91      2.2599151E-03 -1.1220917E-02 
        92      4.6348957E-03 -1.0041108E-02 
        93      2.3036941E-03 -1.0400430E-02 
        94      4.6785843E-03 -9.1468880E-03 
        95      2.3230766E-03 -9.5880146E-03 
        96      4.7138540E-03 -8.2495124E-03 
        97      2.3323506E-03 -8.7973274E-03 
        98      4.7730276E-03 -7.3395916E-03 
        99      2.3437317E-03 -8.0375964E-03 
       100      4.9026851E-03 -6.3925006E-03 
       101      2.3650423E-03 -7.3164533E-03 
       102      5.1974749E-03 -5.3577652E-03 
       103      2.4200646E-03 -6.6411354E-03 
       104      5.9262579E-03 -4.1621941E-03 
       105      2.6145601E-03 -6.0102611E-03 
       106      4.5524370E-02 -1.8088386E-03 
       107      4.5469784E-02 -2.7215675E-03 
       108      4.5405042E-02 -3.6434413E-03 
       109      4.5333800E-02 -4.5761614E-03 
       110      4.5261668E-02 -5.5203306E-03 
       111      4.5194799E-02 -6.4753575E-03 
       112      4.5138381E-02 -7.4395483E-03 
       113      4.5094673E-02 -8.4104174E-03 
       114      4.3250260E-02 -1.8230875E-03 
       115      4.3188918E-02 -2.7414678E-03 
       116      4.3120568E-02 -3.6676137E-03 
       117      4.3047127E-02 -4.6031545E-03 
       118      4.2973568E-02 -5.5489128E-03 
       119      4.2906089E-02 -6.5048699E-03 
       120      4.2850407E-02 -7.4701404E-03 
       121      4.2810086E-02 -8.4426686E-03 
       122      4.0980638E-02 -1.8257100E-03 
       123      4.0911184E-02 -2.7452937E-03 
       124      4.0837437E-02 -3.6727902E-03 
       125      4.0759781E-02 -4.6099647E-03 
       126      4.0682657E-02 -5.5578125E-03 
       127      4.0612473E-02 -6.5165015E-03 
       128      4.0555876E-02 -7.4851852E-03 
       129      4.0518560E-02 -8.4614968E-03 
       130      3.8718715E-02 -1.8200363E-03 
       131      3.8639044E-02 -2.7376341E-03 
       132      3.8557135E-02 -3.6642899E-03 
       133      3.8472173E-02 -4.6019620E-03 
       134      3.8388332E-02 -5.5516891E-03 
       135      3.8312521E-02 -6.5135447E-03 
       136      3.8252692E-02 -7.4864435E-03 
       137      3.8216901E-02 -8.4677027E-03 
       138      3.6467315E-02 -1.8082891E-03 
       139      3.6374611E-02 -2.7216355E-03 
       140      3.6280980E-02 -3.6459283E-03 
       141      3.6184816E-02 -4.5832880E-03 
       142      3.6090374E-02 -5.5346520E-03 
       143      3.6005338E-02 -6.4998307E-03 
       144      3.5939082E-02 -7.4774420E-03 
       145      3.5901848E-02 -8.4646489E-03 
       146      3.4229043E-02 -1.7920233E-03 
       147      3.4119722E-02 -2.6996681E-03 
       148      3.4009981E-02 -3.6208539E-03 
       149      3.3897974E-02 -4.5577703E-03 
       150      3.3788419E-02 -5.5110482E-03 
       151      3.3689925E-02 -6.4800579E-03 
       152      3.3613184E-02 -7.4630802E-03 
       153      3.3570282E-02 -8.4572571E-03 
       154      3.2006368E-02 -1.7723687E-03 
       155      3.1875834E-02 -2.6736899E-03 
       156      3.1744576E-02 -3.5920340E-03 
       157      3.1611269E-02 -4.5294348E-03 
       158      3.1481514E-02 -5.4858834E-03 
       159      3.1364869E-02 -6.4599848E-03 
       160      3.1273010E-02 -7.4495520E-03 
       161      3.1219315E-02 -8.4517920E-03 
       162      2.9801715E-02 -1.7500874E-03 
       163      2.9643875E-02 -2.6454117E-03 
       164      2.9484293E-02 -3.5624931E-03 
       165      2.9323239E-02 -4.5028341E-03 
       166      2.9167739E-02 -5.4651349E-03 
       167      2.9028152E-02 -6.4466976E-03 
       168      2.8916482E-02 -7.4445345E-03 
       169      2.8846454E-02 -8.4560045E-03 
       170      2.7617552E-02 -1.7255179E-03 
       171      2.7423986E-02 -2.6162716E-03 
       172      2.7227212E-02 -3.5354924E-03 
       173      2.7030770E-02 -4.4832923E-03 
       174      2.6843750E-02 -5.4561106E-03 
       175      2.6676948E-02 -6.4489343E-03 
       176      2.6541475E-02 -7.4575127E-03 
       177      2.6449853E-02 -8.4793861E-03 
       178      2.5456473E-02 -1.6983112E-03 
       179      2.5215078E-02 -2.5874656E-03 
       180      2.4969214E-02 -3.5146133E-03 
       181      2.4728273E-02 -4.4773321E-03 
       182      2.4504218E-02 -5.4677956E-03 
       183      2.4307353E-02 -6.4774665E-03 
       184      2.4145953E-02 -7.4999975E-03 
       185      2.4028769E-02 -8.5333123E-03 
       186      2.3321321E-02 -1.6673606E-03 
       187      2.3013989E-02 -2.5597330E-03 
       188      2.2702711E-02 -3.5044447E-03 
       189      2.2406641E-02 -4.4931296E-03 
       190      2.2141150E-02 -5.5115540E-03 
       191      2.1914322E-02 -6.5452525E-03 
       192      2.1728203E-02 -7.5854880E-03 
       193      2.1584219E-02 -8.6307380E-03 
       194      2.1214855E-02 -1.6299753E-03 
       195      2.0813909E-02 -2.5345640E-03 
       196      2.0414676E-02 -3.5111021E-03 
       197      2.0051694E-02 -4.5424367E-03 
       198      1.9743694E-02 -5.6015943E-03 
       199      1.9491849E-02 -6.6675688E-03 
       200      1.9287521E-02 -7.7285710E-03 
       201      1.9119758E-02 -8.7850613E-03 
       202      1.9139480E-02 -1.5838209E-03 
       203      1.8600898E-02 -2.5138346E-03 
       204      1.8082948E-02 -3.5473194E-03 
       205      1.7643425E-02 -4.6419878E-03 
       206      1.7298346E-02 -5.7569460E-03 
       207      1.7034891E-02 -6.8606897E-03 
       208      1.6825170E-02 -7.9428519E-03 
       209      1.6642375E-02 -9.0075660E-03 
       210      1.7094769E-02 -1.5267170E-03 
       211      1.6348203E-02 -2.5180143E-03 
       212      1.5674594E-02 -3.6419182E-03 
       213      1.5157763E-02 -4.8298172E-03 
       214      1.4798313E-02 -6.0059291E-03 
       215      1.4544884E-02 -7.1438230E-03 
       216      1.4348726E-02 -8.2402043E-03 
       217      1.4164477E-02 -9.3057333E-03 
       218      1.5041419E-02 -1.4992230E-03 
       219      1.3978423E-02 -2.6067059E-03 
       220      1.3128985E-02 -3.8951628E-03 
       221      1.2588492E-02 -5.1749494E-03 
       222      1.2253057E-02 -6.3905724E-03 
       223      1.2038869E-02 -7.5374860E-03 
       224      1.1874840E-02 -8.6278571E-03 
       225      1.1702690E-02 -9.6776121E-03 
       226      1.2767589E-02 -1.5828942E-03 
       227      1.1285135E-02 -3.0185785E-03 
       228      1.0429186E-02 -4.4445981E-03 
       229      9.9536553E-03 -5.7458950E-03 
       230      9.6968412E-03 -6.9349435E-03 
       231      9.5439403E-03 -8.0417441E-03 
       232      9.4227690E-03 -9.0921225E-03 
       233      9.2727364E-03 -1.0103174E-02 

 MAXIMUM         4.7841E-02   0.000    
 AT NODE                 9           7

 MINIMUM          0.000     -1.2110E-02
 AT NODE                 2           2
1

   Abaqus 3DEXPERIENCE R2018x                                  Date 22-Feb-2022   Time 12:42:57
   For use by INDIAN INSTITUTE OF TECHNOLOGY BOMBAY under license from Dassault Systemes or its subsidiary.

                                                                                               STEP    2  INCREMENT    1
                                                                                          TIME COMPLETED IN THIS STEP   0.00    
 


                        S T E P       2     M A T R I X   G E N E R A T E
 
  THE FOLLOWING GLOBAL MATRICES WILL BE GENERATED AND WRITTEN TO ME759_Assign1_part_d_CourseMesh_CPE4_X2.sim

    STIFFNESS
    LOAD
 
  IF MULTY-POINT CONSTRAINTS ARE SPECIFIED IN THE MODEL, THEY WILL BE APPLIED
 
  THE FOLLOWING GLOBAL MATRICES WILL BE WRITTEN TO THE FOLLOWING TEXT FILES

    STIFFNESS          TO ME759_Assign1_part_d_CourseMesh_CPE4_STIF2.mtx
    LOAD               TO ME759_Assign1_part_d_CourseMesh_CPE4_LOAD2.mtx
 
  MATRIX OUTPUT FORMAT - MATRIX INPUT
  
                   M E M O R Y   E S T I M A T E
  
 PROCESS      FLOATING PT       MINIMUM MEMORY        MEMORY TO
              OPERATIONS           REQUIRED          MINIMIZE I/O
             PER ITERATION           (MB)               (MB)
  
     1          0.00E+00               17                 17
  
 NOTE:
      (1) SINCE ABAQUS DOES NOT PRE-ALLOCATE MEMORY AND ONLY ALLOCATES MEMORY AS NEEDED DURING THE ANALYSIS,
          THE MEMORY REQUIREMENT PRINTED HERE CAN ONLY BE VIEWED AS A GENERAL GUIDELINE BASED ON THE BEST
          KNOWLEDGE AVAILABLE AT THE BEGINNING OF A STEP BEFORE THE SOLUTION PROCESS HAS BEGUN.
      (2) THE ESTIMATE IS NORMALLY UPDATED AT THE BEGINNING OF EVERY STEP. IT IS THE MAXIMUM VALUE OF THE
          ESTIMATE FROM THE CURRENT STEP TO THE LAST STEP OF THE ANALYSIS, WITH UNSYMMETRIC SOLUTION TAKEN
          INTO ACCOUNT IF APPLICABLE. 
      (3) SINCE THE ESTIMATE IS BASED ON THE ACTIVE DEGREES OF FREEDOM IN THE FIRST ITERATION OF THE 
          CURRENT STEP, THE MEMORY ESTIMATE MIGHT BE SIGNIFICANTLY DIFFERENT THAN ACTUAL USAGE FOR 
          PROBLEMS WITH SUBSTANTIAL CHANGES IN ACTIVE DEGREES OF FREEDOM BETWEEN STEPS (OR EVEN WITHIN
          THE SAME STEP). EXAMPLES ARE: PROBLEMS WITH SIGNIFICANT CONTACT CHANGES, PROBLEMS WITH MODEL
          CHANGE, PROBLEMS WITH BOTH STATIC STEP AND STEADY STATE DYNAMIC PROCEDURES WHERE ACOUSTIC 
          ELEMENTS WILL ONLY BE ACTIVATED IN THE STEADY STATE DYNAMIC STEPS.
      (4) FOR MULTI-PROCESS EXECUTION, THE ESTIMATED VALUE OF FLOATING POINT OPERATIONS FOR EACH PROCESS
          IS BASED ON AN INITIAL SCHEDULING OF OPERATIONS AND MIGHT NOT REFLECT THE ACTUAL FLOATING 
          POINT OPERATIONS COMPLETED ON EACH PROCESS. OPERATIONS ARE DYNAMICALLY BALANCED DURING EXECUTION, 
          SO THE ACTUAL BALANCE OF OPERATIONS BETWEEN PROCESSES IS EXPECTED TO BE BETTER THAN THE ESTIMATE
          PRINTED HERE.
      (5) THE UPPER LIMIT OF MEMORY THAT CAN BE ALLOCATED BY ABAQUS WILL IN GENERAL DEPEND ON THE VALUE OF
          THE "MEMORY" PARAMETER AND THE AMOUNT OF PHYSICAL MEMORY AVAILABLE ON THE MACHINE. PLEASE SEE
          THE "ABAQUS ANALYSIS USER'S MANUAL" FOR MORE DETAILS. THE ACTUAL USAGE OF MEMORY AND OF DISK
          SPACE FOR SCRATCH DATA WILL DEPEND ON THIS UPPER LIMIT AS WELL AS THE MEMORY REQUIRED TO MINIMIZE
          I/O. IF THE MEMORY UPPER LIMIT IS GREATER THAN THE MEMORY REQUIRED TO MINIMIZE I/O, THEN THE ACTUAL
          MEMORY USAGE WILL BE CLOSE TO THE ESTIMATED "MEMORY TO MINIMIZE I/O" VALUE, AND THE SCRATCH DISK
          USAGE WILL BE CLOSE-TO-ZERO; OTHERWISE, THE ACTUAL MEMORY USED WILL BE CLOSE TO THE PREVIOUSLY
          MENTIONED MEMORY LIMIT, AND THE SCRATCH DISK USAGE WILL BE ROUGHLY PROPORTIONAL TO THE DIFFERENCE
          BETWEEN THE ESTIMATED "MEMORY TO MINIMIZE I/O" AND THE MEMORY UPPER LIMIT. HOWEVER ACCURATE
          ESTIMATE OF THE SCRATCH DISK SPACE IS NOT POSSIBLE.
      (6) USING "*RESTART, WRITE" CAN GENERATE A LARGE AMOUNT OF DATA WRITTEN IN THE WORK DIRECTORY.
  


          THE ANALYSIS HAS BEEN COMPLETED



                              ANALYSIS COMPLETE



     JOB TIME SUMMARY
       USER TIME (SEC)      =  0.20000    
       SYSTEM TIME (SEC)    =   0.0000    
       TOTAL CPU TIME (SEC) =  0.20000    
       WALLCLOCK TIME (SEC) =          1
